*SOIL-PLANT-ATMOSPHERE MODULE OUTPUT FILE

*DSSAT Cropping System Model Ver. 4.7.5.035 -develop  JUN 11, 2021 16:21:59

*RUN   1        : 20 IRRIG, PETPEN NO KCB.. MZCER047 KSRT2001    1
 MODEL          : MZCER047 - Maize
 EXPERIMENT     : KSRT2001 SB ARM 2020 KS, IRRIGATED & NON-IRRIGATED
 DATA PATH      :
 TREATMENT  1   : 20 IRRIG, PETPEN NO KCB.. MZCER047
  
!                                                                                                                                                                                        Soil evaporation (mm/d) by soil depth (cm):
!                                                                                                                                                                                        0-5    5-15   15-29   29-43   43-53   53-64  64-132 132-201
@YEAR DOY   DAS   SRAA  TMAXA  TMINA    REFA    EOAA    EOPA    EOSA    KCAA    KCBA    KEAA    ETAA    EPAA    ESAA    EFAA    EMAA    EOAC    ETAC    EPAC    ESAC    EFAC    EMAC    ES1D    ES2D    ES3D    ES4D    ES5D    ES6D    ES7D    ES8D   TRWUD
 2020 106     1  24.00  17.90  -7.20   4.818   4.818   0.000   4.818   0.300   0.000   0.300   1.443   0.000   1.443   0.000   0.000    4.82    1.44    0.00    1.44    0.00    0.00   1.194   0.158   0.046   0.017   0.007   0.005   0.012   0.004   0.000
 2020 107     2  23.60  16.50  -2.00   5.189   5.189   0.000   5.189   0.255   0.000   0.255   1.323   0.000   1.323   0.000   0.000   10.01    2.77    0.00    2.77    0.00    0.00   1.075   0.157   0.046   0.017   0.007   0.005   0.012   0.004   0.000
 2020 108     3  23.70  13.80  -2.00   3.998   3.998   0.000   3.998   0.304   0.000   0.304   1.215   0.000   1.215   0.000   0.000   14.00    3.98    0.00    3.98    0.00    0.00   0.968   0.156   0.045   0.017   0.007   0.005   0.012   0.004   0.000
 2020 109     4  19.70  23.60  -1.10   6.512   6.512   0.000   6.512   0.172   0.000   0.172   1.117   0.000   1.117   0.000   0.000   20.52    5.10    0.00    5.10    0.00    0.00   0.871   0.155   0.045   0.017   0.007   0.005   0.012   0.004   0.000
 2020 110     5  23.20  21.80   1.30   5.543   5.543   0.000   5.543   0.186   0.000   0.186   1.029   0.000   1.029   0.000   0.000   26.06    6.13    0.00    6.13    0.00    0.00   0.784   0.154   0.045   0.017   0.007   0.005   0.012   0.004   0.000
 2020 111     6  24.00  23.50   1.70   5.551   5.551   0.000   5.551   0.171   0.000   0.171   0.950   0.000   0.950   0.000   0.000   31.61    7.08    0.00    7.08    0.00    0.00   0.706   0.153   0.045   0.017   0.007   0.005   0.012   0.004   0.000
 2020 112     7  12.80  19.40   2.50   3.666   3.666   0.000   3.666   0.251   0.000   0.251   0.918   0.000   0.918   0.000   0.000   35.28    8.00    0.00    8.00    0.00    0.00   0.675   0.152   0.045   0.017   0.007   0.005   0.012   0.004   0.000
 2020 113     8  15.20  22.00   5.00   4.254   4.254   0.000   4.254   0.242   0.000   0.242   1.030   0.000   1.030   0.000   0.000   39.53    9.03    0.00    9.03    0.00    0.00   0.788   0.151   0.045   0.017   0.007   0.005   0.012   0.004   0.000
 2020 114     9  22.00  27.10   3.50   6.246   6.246   0.000   6.246   0.174   0.000   0.174   1.090   0.000   1.090   0.000   0.000   45.78   10.12    0.00   10.12    0.00    0.00   0.849   0.150   0.045   0.017   0.007   0.005   0.012   0.004   0.000
 2020 115    10  16.50  17.60   4.30   4.840   4.840   0.000   4.840   0.207   0.000   0.207   1.004   0.000   1.004   0.000   0.000   50.62   11.12    0.00   11.12    0.00    0.00   0.764   0.149   0.045   0.017   0.007   0.005   0.012   0.004   0.000
 2020 116    11  22.50  20.50   1.40   5.200   5.200   0.000   5.200   0.178   0.000   0.178   0.927   0.000   0.927   0.000   0.000   55.82   12.05    0.00   12.05    0.00    0.00   0.688   0.148   0.045   0.017   0.007   0.005   0.012   0.004   0.000
 2020 117    12  22.90  28.10   2.90   7.733   7.733   0.000   7.733   0.111   0.000   0.111   0.857   0.000   0.857   0.000   0.000   63.55   12.90    0.00   12.90    0.00    0.00   0.619   0.147   0.045   0.017   0.007   0.005   0.012   0.004   0.000
 2020 118    13  26.30  29.70   5.00   7.354   7.354   0.000   7.354   0.108   0.000   0.108   0.794   0.000   0.794   0.000   0.000   70.91   13.70    0.00   13.70    0.00    0.00   0.557   0.146   0.045   0.017   0.007   0.005   0.012   0.004   0.000
 2020 119    14  25.10  28.00   6.70   8.102   8.102   0.000   8.102   0.091   0.000   0.091   0.737   0.000   0.737   0.000   0.000   79.01   14.43    0.00   14.43    0.00    0.00   0.502   0.145   0.045   0.017   0.007   0.005   0.012   0.004   0.000
 2020 120    15  27.50  23.70   4.70   8.015   8.015   0.000   8.015   0.086   0.000   0.086   0.686   0.000   0.686   0.000   0.000   87.02   15.12    0.00   15.12    0.00    0.00   0.452   0.144   0.045   0.017   0.007   0.005   0.012   0.004   0.000
 2020 121    16  22.60  32.60   1.20   9.571   9.571   0.000   9.571   0.067   0.000   0.067   0.640   0.000   0.640   0.000   0.000   96.59   15.76    0.00   15.76    0.00    0.00   0.407   0.143   0.045   0.017   0.007   0.005   0.012   0.004   0.000
 2020 122    17  24.70  34.00  10.00   9.090   9.090   0.000   9.090   0.066   0.000   0.066   0.599   0.000   0.599   0.000   0.000  105.68   16.36    0.00   16.36    0.00    0.00   0.366   0.142   0.045   0.017   0.007   0.005   0.012   0.004   0.000
 2020 123    18  25.90  25.50  12.00   7.624   7.624   0.000   7.624   0.074   0.000   0.074   0.561   0.000   0.561   0.000   0.000  113.31   16.92    0.00   16.92    0.00    0.00   0.330   0.141   0.044   0.017   0.007   0.005   0.012   0.004   0.000
 2020 124    19  26.40  26.80   6.30   7.463   7.463   0.000   7.463   0.071   0.000   0.071   0.527   0.000   0.527   0.000   0.000  120.77   17.45    0.00   17.45    0.00    0.00   0.297   0.141   0.044   0.017   0.007   0.005   0.012   0.004   0.000
 2020 125    20  20.10  26.60  11.90   6.347   6.347   0.000   6.347   0.078   0.000   0.078   0.497   0.000   0.497   0.000   0.000  127.12   17.95    0.00   17.95    0.00    0.00   0.267   0.140   0.044   0.017   0.007   0.005   0.012   0.004   0.000
 2020 126    21  27.90  25.00   6.50   6.717   6.717   0.000   6.717   0.070   0.000   0.070   0.469   0.000   0.469   0.000   0.000  133.84   18.41    0.00   18.41    0.00    0.00   0.241   0.139   0.044   0.017   0.007   0.005   0.012   0.004   0.000
 2020 127    22  26.50  22.40   5.80   6.643   6.643   0.000   6.643   0.067   0.000   0.067   0.444   0.000   0.444   0.000   0.000  140.48   18.86    0.00   18.86    0.00    0.00   0.217   0.138   0.044   0.017   0.007   0.005   0.012   0.004   0.000
 2020 128    23  26.20  27.50   8.60   8.907   8.907   0.000   8.907   0.047   0.000   0.047   0.421   0.000   0.421   0.000   0.000  149.39   19.28    0.00   19.28    0.00    0.00   0.195   0.137   0.044   0.017   0.007   0.005   0.012   0.004   0.000
 2020 129    24  27.40  17.10   4.50   5.675   5.675   0.000   5.675   0.071   0.000   0.071   0.401   0.000   0.401   0.000   0.000  155.06   19.68    0.00   19.68    0.00    0.00   0.176   0.136   0.044   0.017   0.007   0.005   0.012   0.004   0.000
 2020 130    25  27.20  22.10   3.50   7.243   7.243   0.000   7.243   0.053   0.000   0.053   0.382   0.000   0.382   0.000   0.000  162.30   20.06    0.00   20.06    0.00    0.00   0.158   0.135   0.044   0.017   0.007   0.005   0.012   0.004   0.000
 2020 131    26  27.10  18.30   4.10   6.105   6.105   0.000   6.105   0.060   0.000   0.060   0.366   0.000   0.366   0.000   0.000  168.41   20.43    0.00   20.43    0.00    0.00   0.142   0.134   0.044   0.017   0.007   0.005   0.012   0.004   0.000
 2020 132    27   3.30   8.90   2.80   1.353   1.353   0.000   1.353   0.392   0.000   0.392   0.530   0.000   0.530   0.000   0.000  169.76   20.96    0.00   20.96    0.00    0.00   0.308   0.133   0.044   0.017   0.007   0.005   0.012   0.004   0.000
 2020 133    28   5.40   8.20   2.60   1.337   1.337   0.000   1.337   0.526   0.000   0.526   0.703   0.000   0.703   0.000   0.000  171.10   21.66    0.00   21.66    0.00    0.00   0.481   0.132   0.044   0.017   0.007   0.005   0.012   0.004   0.000
 2020 134    29  17.80  22.10   6.70   5.165   5.165   0.000   5.165   0.133   0.000   0.133   0.689   0.000   0.689   0.000   0.000  176.26   22.35    0.00   22.35    0.00    0.00   0.468   0.131   0.044   0.017   0.007   0.005   0.012   0.004   0.000
 2020 135    30  20.60  26.70   9.30   6.266   6.266   0.000   6.266   0.104   0.000   0.104   0.651   0.000   0.651   0.000   0.000  182.53   23.00    0.00   23.00    0.00    0.00   0.432   0.131   0.044   0.017   0.007   0.005   0.012   0.004   0.000
 2020 136    31  24.10  26.00  12.90   6.091   6.091   0.000   6.091   0.108   0.000   0.108   0.657   0.000   0.657   0.000   0.000  188.62   23.66    0.00   23.66    0.00    0.00   0.438   0.130   0.044   0.017   0.007   0.005   0.012   0.004   0.000
 2020 137    32  22.90  24.30  12.70   5.331   5.331   0.000   5.331   0.167   0.000   0.167   0.892   0.000   0.892   0.000   0.000  193.95   24.55    0.00   24.55    0.00    0.00   0.674   0.129   0.044   0.017   0.007   0.005   0.012   0.004   0.000
 2020 138    33  27.60  25.40  10.10   6.688   6.688   0.000   6.688   0.157   0.000   0.157   1.053   0.000   1.053   0.000   0.000  200.64   25.60    0.00   25.60    0.00    0.00   0.836   0.128   0.043   0.017   0.007   0.005   0.012   0.004   0.000
 2020 139    34  26.90  28.00   7.00   7.195   7.195   0.000   7.195   0.135   0.000   0.135   0.969   0.000   0.969   0.000   0.000  207.83   26.57    0.00   26.57    0.00    0.00   0.753   0.127   0.043   0.017   0.007   0.005   0.012   0.004   0.000
 2020 140    35  23.70  28.80  11.00   7.074   7.074   0.000   7.074   0.126   0.000   0.126   0.893   0.000   0.893   0.000   0.000  214.91   27.46    0.00   27.46    0.00    0.00   0.678   0.126   0.043   0.017   0.007   0.005   0.012   0.004   0.000
 2020 141    36  20.80  26.00  11.30   6.413   6.413   0.000   6.413   0.129   0.000   0.129   0.824   0.000   0.824   0.000   0.000  221.32   28.29    0.00   28.29    0.00    0.00   0.610   0.126   0.043   0.017   0.007   0.005   0.012   0.004   0.000
 2020 142    37  16.10  27.40  12.20   6.044   6.044   0.000   6.044   0.250   0.000   0.250   1.510   0.000   1.510   0.000   0.000  227.36   29.80    0.00   29.80    0.00    0.00   1.241   0.181   0.044   0.017   0.007   0.005   0.012   0.004   0.000
 2020 143    38  28.00  24.80  10.50   6.794   6.794   0.000   6.794   0.819   0.000   0.819   5.564   0.000   5.564   0.000   0.000  234.16   35.36    0.00   35.36    0.00    0.00   0.196   0.392   0.332   0.333   0.264   0.292   1.862   1.893   0.000
 2020 144    39  22.50  33.10  12.10   8.914   8.914   0.000   8.914   0.234   0.000   0.234   2.083   0.000   2.083   0.000   0.000  243.07   37.45    0.00   37.45    0.00    0.00   1.761   0.233   0.044   0.017   0.007   0.005   0.011   0.004   0.000
 2020 145    40  23.60  26.80  12.80   7.376   7.376   0.000   7.376   0.258   0.000   0.258   1.906   0.000   1.906   0.000   0.000  250.45   39.35    0.00   39.35    0.00    0.00   1.585   0.231   0.044   0.017   0.007   0.005   0.011   0.004   0.000
 2020 146    41  15.70  19.40   8.60   4.660   4.660   0.000   4.660   0.377   0.000   0.377   1.756   0.000   1.756   0.000   0.000  255.11   41.11    0.00   41.11    0.00    0.00   1.437   0.230   0.044   0.017   0.007   0.005   0.011   0.004   0.000
 2020 147    42  23.60  25.60   6.20   6.128   6.128   0.000   6.128   0.265   0.000   0.265   1.621   0.000   1.621   0.000   0.000  261.24   42.73    0.00   42.73    0.00    0.00   1.304   0.228   0.044   0.017   0.007   0.005   0.011   0.004   0.000
 2020 148    43  15.40  24.30   8.90   5.062   5.062   0.000   5.062   0.294   0.000   0.294   1.489   0.000   1.489   0.000   0.000  266.30   44.22    0.00   44.22    0.00    0.00   1.174   0.227   0.044   0.017   0.007   0.005   0.011   0.004   0.000
 2020 149    44  26.90  27.60  10.10   7.453   7.453   0.000   7.453   0.184   0.000   0.184   1.371   0.000   1.371   0.000   0.000  273.75   45.59    0.00   45.59    0.00    0.00   1.057   0.225   0.044   0.017   0.007   0.005   0.011   0.004   0.000
 2020 150    45  27.90  31.00  12.40   8.716   8.716   0.000   8.716   0.145   0.000   0.145   1.264   0.000   1.264   0.000   0.000  282.47   46.85    0.00   46.85    0.00    0.00   0.951   0.224   0.044   0.017   0.007   0.005   0.011   0.004   0.000
 2020 151    46  27.80  35.20  16.20  11.852  11.852   0.000  11.852   0.098   0.000   0.098   1.167   0.000   1.167   0.000   0.000  294.32   48.02    0.00   48.02    0.00    0.00   0.857   0.222   0.044   0.017   0.007   0.005   0.011   0.004   0.000
 2020 152    47  28.10  34.30  17.70  11.815  11.815   0.000  11.815   0.091   0.000   0.091   1.080   0.000   1.080   0.000   0.000  306.13   49.10    0.00   49.10    0.00    0.00   0.771   0.221   0.044   0.017   0.007   0.005   0.011   0.004   0.000
 2020 153    48  27.10  34.80  17.00  11.757  11.757   0.000  11.757   0.085   0.000   0.085   1.002   0.000   1.002   0.000   0.000  317.89   50.10    0.00   50.10    0.00    0.00   0.694   0.219   0.044   0.017   0.007   0.005   0.011   0.004   0.000
 2020 154    49  27.80  37.00  16.70   9.992   9.992   0.000   9.992   0.093   0.000   0.093   0.931   0.000   0.931   0.000   0.000  327.88   51.03    0.00   51.03    0.00    0.00   0.625   0.218   0.043   0.017   0.007   0.005   0.011   0.004   0.000
 2020 155    50  27.90  35.40  17.80   9.148   9.148   0.000   9.148   0.095   0.000   0.095   0.867   0.000   0.867   0.000   0.000  337.03   51.90    0.00   51.90    0.00    0.00   0.563   0.217   0.043   0.017   0.007   0.005   0.011   0.004   0.000
 2020 156    51  21.60  36.50  16.10   8.164   8.164   0.000   8.164   0.100   0.000   0.100   0.820   0.000   0.820   0.000   0.000  345.20   52.72    0.00   52.72    0.00    0.00   0.516   0.215   0.043   0.017   0.007   0.005   0.011   0.004   0.000
 2020 157    52  28.00  38.60  17.70  10.112  10.112   0.032  10.080   0.080   0.003   0.077   0.809   0.032   0.777   0.000   0.000  355.31   53.53    0.03   53.50    0.00    0.00   0.475   0.214   0.043   0.017   0.007   0.005   0.011   0.004   0.003
 2020 158    53  25.40  36.90  19.30  10.623  10.623   0.071  10.552   0.075   0.007   0.068   0.798   0.071   0.727   0.000   0.000  365.93   54.33    0.10   54.22    0.00    0.00   0.428   0.212   0.043   0.017   0.007   0.005   0.011   0.004   0.007
 2020 159    54  27.50  35.60  22.30  12.059  12.059   0.122  11.931   0.067   0.010   0.057   0.805   0.122   0.683   0.000   0.000  377.99   55.13    0.23   54.91    0.00    0.00   0.385   0.210   0.043   0.017   0.007   0.005   0.011   0.004   0.012
 2020 160    55  28.90  38.60  19.80  12.207  12.207   0.179  12.021   0.067   0.015   0.053   0.821   0.179   0.642   0.000   0.000  390.20   55.95    0.40   55.55    0.00    0.00   0.347   0.208   0.043   0.017   0.007   0.005   0.011   0.004   0.018
 2020 161    56   5.50  25.60   9.00   5.580   5.580   0.166   5.404   0.252   0.030   0.222   1.404   0.166   1.238   0.000   0.000  395.78   57.36    0.57   56.79    0.00    0.00   0.945   0.205   0.043   0.017   0.007   0.005   0.011   0.004   0.017
 2020 162    57  29.50  27.10   8.30   6.714   6.714   0.250   6.456   0.302   0.037   0.264   2.025   0.250   1.775   0.000   0.000  402.49   59.38    0.82   58.56    0.00    0.00   1.484   0.203   0.043   0.017   0.007   0.005   0.011   0.004   0.025
 2020 163    58  28.70  33.60  15.00   9.357   9.357   0.438   8.904   0.220   0.047   0.173   2.054   0.438   1.616   0.000   0.000  411.85   61.44    1.26   60.18    0.00    0.00   1.328   0.201   0.043   0.017   0.007   0.005   0.011   0.004   0.044
 2020 164    59  28.10  35.40  16.50   9.184   9.184   0.588   8.580   0.224   0.064   0.160   2.053   0.588   1.465   0.000   0.000  421.03   63.49    1.85   61.64    0.00    0.00   1.180   0.197   0.043   0.017   0.007   0.005   0.011   0.004   0.059
 2020 165    60  28.80  37.70  13.20  11.487  11.487   0.964  10.490   0.199   0.084   0.115   2.287   0.964   1.323   0.000   0.000  432.52   65.78    2.81   62.97    0.00    0.00   1.043   0.194   0.043   0.017   0.007   0.005   0.011   0.004   0.096
 2020 166    61  20.90  35.90  19.60  12.443  12.443   1.306  11.083   0.201   0.105   0.096   2.495   1.306   1.189   0.000   0.000  444.96   68.27    4.11   64.16    0.00    0.00   0.915   0.187   0.043   0.017   0.007   0.005   0.011   0.004   0.131
 2020 167    62  27.90  35.90  18.60  12.474  12.474   1.620  10.784   0.217   0.130   0.087   2.702   1.620   1.082   0.000   0.000  457.43   70.97    5.73   65.24    0.00    0.00   0.816   0.178   0.043   0.017   0.007   0.005   0.011   0.004   0.162
 2020 168    63  27.90  34.40  19.00  11.313  11.313   1.773   9.462   0.243   0.156   0.087   2.753   1.766   0.986   0.000   0.000  468.75   73.72    7.50   66.22    0.00    0.00   0.733   0.166   0.043   0.017   0.007   0.005   0.011   0.004   0.177
 2020 169    64  26.50  36.50  20.60  12.497  12.497   2.374  10.011   0.319   0.190   0.129   3.988   2.374   1.614   0.000   0.000  481.24   77.71    9.88   67.84    0.00    0.00   1.296   0.204   0.062   0.024   0.008   0.005   0.011   0.004   0.237
 2020 170    65  27.80  30.80  19.20   9.443   9.443   2.163   7.187   0.876   0.229   0.646   8.268   2.163   6.104   0.000   0.000  490.69   85.98   12.04   73.94    0.00    0.00   0.196   0.391   0.593   0.592   0.337   0.287   1.839   1.871   0.216
 2020 171    66  14.50  24.70  13.80   4.118   4.118   1.093   2.989   0.991   0.265   0.726   4.082   1.093   2.989   0.000   0.000  494.81   90.06   13.13   76.93    0.00    0.00   0.096   0.186   0.287   0.287   0.178   0.141   0.900   0.916   0.109
 2020 172    67  26.20  32.50  14.80   7.106   7.106   2.059   4.996   0.586   0.290   0.296   4.165   2.059   2.107   0.000   0.000  501.91   94.23   15.19   79.04    0.00    0.00   1.749   0.221   0.077   0.029   0.010   0.005   0.011   0.004   0.206
 2020 173    68  19.10  34.70  15.10   7.445   7.445   2.408   4.968   0.579   0.323   0.256   4.311   2.408   1.903   0.000   0.000  509.36   98.54   17.60   80.94    0.00    0.00   1.554   0.214   0.076   0.029   0.010   0.005   0.011   0.004   0.241
 2020 174    69  26.20  31.20  13.60   6.798   6.798   2.459   4.277   0.614   0.362   0.252   4.175   2.459   1.716   0.000   0.000  516.15  102.71   20.06   82.66    0.00    0.00   1.376   0.206   0.074   0.029   0.010   0.005   0.011   0.004   0.246
 2020 175    70  24.70  30.80  13.50   6.167   6.167   2.449   3.668   0.648   0.397   0.251   3.996   2.449   1.547   0.000   0.000  522.32  106.71   22.51   84.20    0.00    0.00   1.216   0.199   0.073   0.029   0.010   0.005   0.011   0.004   0.245
 2020 176    71  27.40  36.20  17.40   9.162   9.162   3.898   5.151   0.578   0.425   0.152   5.294   3.898   1.396   0.000   0.000  531.48  112.00   26.40   85.60    0.00    0.00   1.073   0.192   0.072   0.028   0.010   0.005   0.011   0.004   0.390
 2020 177    72  26.00  37.10  17.80  10.893  10.893   5.084   5.615   0.581   0.467   0.114   6.330   5.084   1.246   0.000   0.000  542.38  118.33   31.49   86.84    0.00    0.00   0.935   0.183   0.070   0.028   0.010   0.005   0.011   0.004   0.508
 2020 178    73  27.60  36.80  18.20   8.176   8.176   4.259   3.829   0.659   0.521   0.138   5.391   4.259   1.131   0.000   0.000  550.55  123.72   35.75   87.98    0.00    0.00   0.835   0.172   0.068   0.027   0.010   0.005   0.011   0.004   0.426
 2020 179    74  25.70  36.70  17.70   8.501   8.501   4.798   3.588   0.686   0.564   0.122   5.829   4.794   1.035   0.000   0.000  559.05  129.55   40.54   89.01    0.00    0.00   0.750   0.163   0.066   0.026   0.009   0.005   0.011   0.004   0.479
 2020 180    75  26.80  37.40  18.00   8.790   8.790   5.288   3.365   0.709   0.602   0.108   6.236   5.288   0.948   0.000   0.000  567.84  135.79   45.83   89.96    0.00    0.00   0.675   0.154   0.064   0.025   0.009   0.005   0.011   0.004   0.529
 2020 181    76  28.00  39.80  20.80  10.791  10.791   6.910   3.658   0.721   0.640   0.081   7.779   6.910   0.869   0.000   0.000  578.63  143.57   52.74   90.83    0.00    0.00   0.608   0.146   0.062   0.024   0.009   0.005   0.011   0.004   0.691
 2020 182    77  28.10  37.20  16.20   9.518   9.518   6.531   2.825   0.770   0.686   0.083   7.325   6.531   0.794   0.000   0.000  588.15  150.89   59.27   91.62    0.00    0.00   0.547   0.136   0.059   0.022   0.009   0.005   0.011   0.004   0.653
 2020 183    78  26.00  33.30  17.50   7.923   7.923   5.665   2.094   0.807   0.715   0.092   6.394   5.665   0.729   0.000   0.000  596.08  157.29   64.94   92.35    0.00    0.00   0.493   0.130   0.057   0.021   0.008   0.005   0.011   0.004   0.566
 2020 184    79  22.60  37.30  18.10   8.141   8.141   6.017   1.962   0.822   0.739   0.083   6.689   6.017   0.672   0.000   0.000  604.22  163.98   70.95   93.02    0.00    0.00   0.444   0.126   0.054   0.020   0.008   0.005   0.011   0.004   0.602
 2020 185    80  24.90  35.10  15.00   7.367   7.367   5.609   1.633   0.962   0.761   0.200   7.084   5.609   1.475   0.000   0.000  611.58  171.06   76.56   94.50    0.00    0.00   1.166   0.188   0.068   0.026   0.009   0.004   0.011   0.004   0.561
 2020 186    81  25.70  33.90  15.60   6.792   6.792   5.276   1.418   0.986   0.777   0.209   6.695   5.276   1.418   0.000   0.000  618.38  177.75   81.84   95.92    0.00    0.00   0.046   0.094   0.139   0.139   0.084   0.060   0.425   0.433   0.528
 2020 187    82  14.80  30.60  18.00   4.274   4.274   3.372   0.851   0.988   0.789   0.199   4.223   3.372   0.851   0.000   0.000  622.65  181.98   85.21   96.77    0.00    0.00   0.703   0.093   0.031   0.012   0.004   0.002   0.004   0.002   0.337
 2020 188    83  26.40  33.30  15.00   6.303   6.303   5.023   1.208   0.989   0.797   0.192   6.231   5.023   1.208   0.000   0.000  628.95  188.21   90.23   97.98    0.00    0.00   0.992   0.136   0.045   0.017   0.006   0.003   0.007   0.002   0.502
 2020 189    84  27.40  34.40  18.40   7.887   7.887   6.255   1.461   0.978   0.793   0.185   7.716   6.255   1.461   0.000   0.000  636.84  195.92   96.49   99.44    0.00    0.00   1.188   0.172   0.057   0.022   0.007   0.004   0.009   0.003   0.626
 2020 190    85  27.90  38.70  19.80  10.053  10.053   8.022   1.791   0.970   0.798   0.172   9.755   8.022   1.733   0.000   0.000  646.89  205.68  104.51  101.17    0.00    0.00   1.389   0.216   0.072   0.028   0.009   0.004   0.011   0.004   0.802
 2020 191    86  25.60  32.80  21.40   7.135   7.135   5.753   1.218   0.977   0.806   0.171   6.971   5.753   1.218   0.000   0.000  654.03  212.65  110.26  102.39    0.00    0.00   0.955   0.165   0.056   0.021   0.007   0.003   0.009   0.003   0.575
 2020 192    87  16.60  32.30  21.40   5.639   5.639   4.601   0.931   0.981   0.816   0.165   5.532   4.601   0.931   0.000   0.000  659.67  218.18  114.86  103.32    0.00    0.00   0.715   0.135   0.046   0.018   0.006   0.003   0.007   0.003   0.460
 2020 193    88  27.20  35.70  17.30   7.617   7.617   6.256   1.225   0.982   0.821   0.161   7.481   6.256   1.225   0.000   0.000  667.29  225.66  121.12  104.54    0.00    0.00   0.922   0.188   0.064   0.025   0.008   0.004   0.011   0.004   0.626
 2020 194    89  23.40  34.20  18.20   6.628   6.628   5.563   0.944   0.982   0.839   0.142   6.507   5.563   0.944   0.000   0.000  673.91  232.17  126.68  105.49    0.00    0.00   0.697   0.153   0.053   0.020   0.006   0.003   0.009   0.003   0.556
 2020 195    90  26.10  32.90  17.50   7.511   7.511   6.308   1.027   0.975   0.838   0.137   7.324   6.297   1.027   0.000   0.000  681.42  239.50  132.98  106.52    0.00    0.00   0.747   0.172   0.060   0.023   0.007   0.004   0.010   0.004   0.630
 2020 196    91  18.90  31.80  20.10   5.662   5.662   4.759   0.772   0.977   0.841   0.136   5.531   4.759   0.772   0.000   0.000  687.09  245.03  137.74  107.29    0.00    0.00   0.577   0.119   0.042   0.016   0.005   0.003   0.008   0.003   0.476
 2020 197    92  19.90  28.60  18.50   4.773   4.773   4.025   0.658   0.981   0.843   0.138   4.683   4.025   0.658   0.000   0.000  691.86  249.71  141.76  107.94    0.00    0.00   0.505   0.093   0.033   0.013   0.004   0.002   0.006   0.002   0.403
 2020 198    93  24.40  32.20  18.50   6.246   6.246   5.252   0.881   0.982   0.841   0.141   6.132   5.252   0.881   0.000   0.000  698.11  255.84  147.02  108.83    0.00    0.00   0.671   0.127   0.045   0.017   0.005   0.003   0.009   0.003   0.525
 2020 199    94  23.10  35.60  20.40   7.448   7.448   6.217   1.076   0.979   0.835   0.144   7.292   6.217   1.076   0.000   0.000  705.55  263.13  153.23  109.90    0.00    0.00   0.866   0.130   0.044   0.017   0.006   0.003   0.007   0.003   0.622
 2020 200    95  20.40  35.90  21.20   6.353   6.353   5.322   0.938   0.985   0.838   0.148   6.259   5.322   0.938   0.000   0.000  711.91  269.39  158.55  110.84    0.00    0.00   0.215   0.162   0.137   0.097   0.053   0.040   0.134   0.100   0.532
 2020 201    96  20.90  29.60  18.90   5.583   5.583   4.631   0.843   0.980   0.829   0.151   5.474   4.631   0.843   0.000   0.000  717.49  274.87  163.19  111.68    0.00    0.00   0.189   0.143   0.122   0.087   0.047   0.041   0.122   0.091   0.463
 2020 202    97  26.50  31.00  18.00   6.514   6.514   5.360   1.015   0.979   0.823   0.156   6.374   5.360   1.015   0.000   0.000  724.00  281.24  168.54  112.70    0.00    0.00   0.033   0.065   0.097   0.098   0.062   0.067   0.285   0.307   0.536
 2020 203    98  27.00  29.80  15.60   6.052   6.052   4.979   0.973   0.983   0.823   0.161   5.952   4.979   0.973   0.000   0.000  730.06  287.19  173.52  113.67    0.00    0.00   0.803   0.106   0.035   0.014   0.005   0.003   0.005   0.002   0.498
 2020 204    99  26.70  33.30  18.40   7.159   7.159   5.823   1.190   0.980   0.813   0.166   7.013   5.823   1.190   0.000   0.000  737.21  294.21  179.35  114.86    0.00    0.00   0.975   0.135   0.045   0.017   0.006   0.004   0.006   0.002   0.582
 2020 205   100  24.20  33.50  20.00   7.101   7.101   5.728   1.213   0.977   0.807   0.171   6.941   5.728   1.213   0.000   0.000  744.32  301.15  185.07  116.07    0.00    0.00   0.982   0.144   0.048   0.019   0.006   0.005   0.007   0.003   0.573
 2020 206   101  26.10  34.70  20.80   7.666   7.666   6.162   1.340   0.979   0.804   0.175   7.502   6.162   1.340   0.000   0.000  751.98  308.65  191.24  117.41    0.00    0.00   1.070   0.168   0.056   0.022   0.007   0.005   0.008   0.003   0.616
 2020 207   102  26.10  35.40  21.00   7.810   7.810   6.268   1.393   0.981   0.802   0.178   7.660   6.268   1.393   0.000   0.000  759.79  316.31  197.50  118.81    0.00    0.00   1.092   0.187   0.063   0.024   0.008   0.006   0.009   0.004   0.627
 2020 208   103  20.20  35.80  19.40   6.195   6.195   4.977   1.124   0.985   0.803   0.181   6.101   4.977   1.124   0.000   0.000  765.99  322.41  202.48  119.93    0.00    0.00   0.906   0.137   0.046   0.017   0.006   0.004   0.006   0.002   0.498
 2020 209   104  12.60  26.40  20.00   2.917   2.917   2.347   0.538   0.989   0.804   0.185   2.885   2.347   0.538   0.000   0.000  768.90  325.30  204.83  120.47    0.00    0.00   0.123   0.093   0.079   0.056   0.029   0.025   0.075   0.059   0.235
 2020 210   105  12.00  25.50  19.70   2.739   2.739   2.190   0.517   0.988   0.800   0.189   2.707   2.190   0.517   0.000   0.000  771.64  328.00  207.02  120.99    0.00    0.00   0.017   0.034   0.051   0.051   0.032   0.034   0.140   0.158   0.219
 2020 211   106  22.90  32.00  18.50   5.161   5.161   4.099   1.017   0.991   0.794   0.197   5.116   4.099   1.017   0.000   0.000  776.80  333.12  211.12  122.00    0.00    0.00   0.235   0.174   0.147   0.104   0.053   0.051   0.143   0.111   0.410
 2020 212   107  20.50  25.90  16.00   4.373   4.373   3.397   0.898   0.982   0.777   0.205   4.295   3.397   0.898   0.000   0.000  781.18  337.41  214.51  122.90    0.00    0.00   0.206   0.154   0.130   0.092   0.047   0.045   0.126   0.099   0.340
 2020 213   108  25.70  28.90  14.00   5.147   5.147   4.000   1.100   0.991   0.777   0.214   5.100   4.000   1.100   0.000   0.000  786.32  342.51  218.51  124.00    0.00    0.00   0.036   0.073   0.107   0.107   0.067   0.074   0.297   0.339   0.400
 2020 214   109  25.80  31.00  13.40   5.323   5.323   4.099   1.183   0.992   0.770   0.222   5.282   4.099   1.183   0.000   0.000  791.65  347.80  222.61  125.18    0.00    0.00   0.977   0.130   0.043   0.016   0.005   0.004   0.006   0.002   0.410
 2020 215   110  21.40  27.30  15.80   4.558   4.558   3.450   1.052   0.988   0.757   0.231   4.501   3.450   1.052   0.000   0.000  796.21  352.30  226.06  126.24    0.00    0.00   0.860   0.121   0.040   0.015   0.005   0.004   0.005   0.002   0.345
 2020 216   111  20.60  25.60  14.80   4.215   4.215   3.153   1.009   0.987   0.748   0.239   4.162   3.153   1.009   0.000   0.000  800.42  356.46  229.21  127.25    0.00    0.00   0.832   0.112   0.036   0.014   0.005   0.003   0.005   0.002   0.315
 2020 217   112  21.60  28.00  15.70   5.334   5.334   3.899   1.323   0.979   0.731   0.248   5.222   3.899   1.323   0.000   0.000  805.75  361.68  233.11  128.57    0.00    0.00   0.316   0.229   0.191   0.129   0.066   0.063   0.182   0.147   0.390
 2020 218   113  24.30  29.00  14.00   5.336   5.336   3.896   1.369   0.987   0.730   0.257   5.266   3.896   1.369   0.000   0.000  811.09  366.95  237.01  129.94    0.00    0.00   0.047   0.093   0.136   0.128   0.080   0.087   0.367   0.431   0.390
 2020 219   114  17.00  28.20  18.90   4.259   4.259   3.055   1.130   0.982   0.717   0.265   4.184   3.055   1.130   0.000   0.000  815.35  371.13  240.06  131.07    0.00    0.00   0.267   0.199   0.167   0.112   0.055   0.052   0.153   0.125   0.305
 2020 220   115  24.70  31.80  20.00   5.441   5.441   3.902   1.490   0.991   0.717   0.274   5.392   3.902   1.490   0.000   0.000  820.79  376.52  243.97  132.56    0.00    0.00   0.345   0.261   0.221   0.153   0.074   0.068   0.202   0.166   0.390
 2020 221   116  24.60  34.80  15.40   6.358   6.358   4.492   1.794   0.989   0.707   0.282   6.286   4.492   1.794   0.000   0.000  827.15  382.81  248.46  134.35    0.00    0.00   0.060   0.122   0.180   0.178   0.109   0.109   0.471   0.565   0.449
 2020 222   117  24.10  35.20  18.90   7.366   7.366   5.126   2.140   0.979   0.696   0.283   7.212   5.126   2.086   0.000   0.000  834.51  390.02  253.58  136.44    0.00    0.00   1.722   0.231   0.076   0.029   0.009   0.006   0.009   0.004   0.513
 2020 223   118  21.50  33.00  16.90   5.555   5.555   3.832   1.663   0.989   0.690   0.299   5.495   3.832   1.663   0.000   0.000  840.07  395.52  257.42  138.10    0.00    0.00   1.347   0.200   0.066   0.025   0.008   0.005   0.008   0.003   0.383
 2020 224   119  23.90  32.10  14.00   6.093   6.093   4.132   1.877   0.959   0.678   0.281   5.844   4.132   1.712   0.000   0.000  846.16  401.36  261.55  139.81    0.00    0.00   1.362   0.221   0.073   0.028   0.009   0.006   0.009   0.004   0.413
 2020 225   120  20.60  30.80  18.00   5.231   5.231   3.505   1.657   0.965   0.670   0.295   5.050   3.505   1.545   0.000   0.000  851.39  406.41  265.05  141.36    0.00    0.00   1.202   0.216   0.072   0.027   0.009   0.006   0.009   0.004   0.350
 2020 226   121  22.50  32.50  20.40   5.150   5.150   3.431   1.677   0.938   0.666   0.272   4.830   3.431   1.399   0.000   0.000  856.54  411.24  268.48  142.76    0.00    0.00   1.061   0.212   0.071   0.027   0.009   0.006   0.009   0.004   0.343
 2020 227   122  18.80  32.70  17.80   4.736   4.736   3.112   1.584   0.925   0.657   0.267   4.379   3.112   1.267   0.000   0.000  861.28  415.62  271.60  144.02    0.00    0.00   0.935   0.208   0.070   0.027   0.009   0.006   0.009   0.004   0.311
 2020 228   123  20.50  31.00  19.30   4.836   4.836   3.126   1.661   0.887   0.646   0.241   4.290   3.126   1.164   0.000   0.000  866.11  419.91  274.72  145.19    0.00    0.00   0.838   0.204   0.069   0.026   0.008   0.006   0.009   0.004   0.313
 2020 229   124  21.50  31.40  18.90   5.491   5.491   3.483   1.935   0.855   0.634   0.221   4.696   3.483   1.214   0.000   0.000  871.61  424.60  278.20  146.40    0.00    0.00   0.893   0.200   0.068   0.026   0.008   0.006   0.009   0.004   0.348
 2020 230   125  25.00  32.50  14.00   5.639   5.639   3.554   2.038   0.853   0.630   0.223   4.812   3.554   1.258   0.000   0.000  877.24  429.42  281.76  147.66    0.00    0.00   0.943   0.196   0.067   0.026   0.008   0.005   0.009   0.004   0.355
 2020 231   126  23.60  32.80  15.00   6.011   6.011   3.716   2.227   0.810   0.618   0.192   4.869   3.716   1.153   0.000   0.000  883.26  434.29  285.47  148.81    0.00    0.00   0.844   0.191   0.066   0.025   0.008   0.005   0.009   0.004   0.372
 2020 232   127  18.70  31.40  17.70   5.406   5.406   3.284   2.052   0.803   0.607   0.196   4.342   3.281   1.062   0.000   0.000  888.66  438.63  288.75  149.87    0.00    0.00   0.759   0.187   0.065   0.025   0.008   0.005   0.009   0.004   0.328
 2020 233   128  22.80  31.50  15.20   5.696   5.696   3.415   2.215   0.772   0.600   0.172   4.395   3.415   0.981   0.000   0.000  894.36  443.02  292.17  150.86    0.00    0.00   0.683   0.183   0.064   0.025   0.008   0.005   0.009   0.004   0.341
 2020 234   129  20.10  31.40  17.30   5.270   5.270   3.119   2.099   0.899   0.592   0.307   4.739   3.119   1.620   0.000   0.000  899.63  447.76  295.29  152.47    0.00    0.00   1.273   0.216   0.073   0.028   0.010   0.007   0.009   0.004   0.312
 2020 235   130  21.20  33.80  15.50   5.652   5.652   3.295   2.304   0.990   0.583   0.408   5.599   3.295   2.304   0.000   0.000  905.28  453.36  298.58  154.78    0.00    0.00   0.077   0.156   0.230   0.230   0.151   0.165   0.592   0.704   0.329
 2020 236   131  21.10  34.40  17.50   6.131   6.131   3.509   2.557   0.989   0.572   0.417   6.066   3.509   2.557   0.000   0.000  911.41  459.43  302.09  157.34    0.00    0.00   0.084   0.169   0.252   0.253   0.161   0.176   0.682   0.779   0.351
 2020 237   132  22.50  35.10  16.40   6.964   6.964   3.911   2.972   0.862   0.562   0.300   6.001   3.911   2.090   0.000   0.000  918.37  465.43  306.00  159.43    0.00    0.00   1.723   0.231   0.077   0.029   0.010   0.007   0.010   0.004   0.391
 2020 238   133  21.80  33.60  18.90   7.160   7.160   3.943   3.125   0.814   0.551   0.264   5.831   3.943   1.889   0.000   0.000  925.53  471.26  309.95  161.31    0.00    0.00   1.527   0.226   0.076   0.029   0.010   0.007   0.010   0.004   0.394
 2020 239   134  22.40  34.80  13.50   6.874   6.874   3.727   3.067   0.790   0.542   0.248   5.433   3.727   1.706   0.000   0.000  932.41  476.69  313.67  163.02    0.00    0.00   1.351   0.222   0.074   0.029   0.010   0.007   0.010   0.004   0.373
 2020 240   135  22.20  35.50  16.60   6.218   6.218   3.327   2.834   0.783   0.535   0.248   4.870   3.327   1.543   0.000   0.000  938.63  481.56  317.00  164.56    0.00    0.00   1.194   0.217   0.073   0.028   0.009   0.007   0.010   0.004   0.333
 2020 241   136  22.00  35.50  17.20   6.286   6.286   3.296   2.926   0.990   0.524   0.465   6.222   3.296   2.926   0.000   0.000  944.91  487.79  320.30  167.49    0.00    0.00   0.083   0.196   0.292   0.293   0.186   0.199   0.775   0.902   0.330
 2020 242   137  11.50  24.60  17.20   2.622   2.622   1.356   1.246   0.992   0.517   0.475   2.601   1.356   1.246   0.000   0.000  947.53  490.39  321.65  168.73    0.00    0.00   0.292   0.218   0.183   0.130   0.068   0.062   0.163   0.130   0.136
 2020 243   138  19.90  33.30  16.00   4.758   4.758   2.423   2.307   0.994   0.509   0.485   4.730   2.423   2.307   0.000   0.000  952.29  495.12  324.08  171.04    0.00    0.00   0.527   0.397   0.337   0.239   0.124   0.118   0.319   0.247   0.242
 2020 244   139  22.40  24.60  14.00   4.408   4.408   2.175   2.181   0.988   0.493   0.495   4.356   2.175   2.181   0.000   0.000  956.70  499.47  326.25  173.22    0.00    0.00   0.071   0.144   0.214   0.215   0.135   0.149   0.596   0.656   0.218
 2020 245   140  13.90  25.80  15.20   3.150   3.150   1.538   1.589   0.993   0.488   0.505   3.128   1.538   1.589   0.000   0.000  959.85  502.60  327.79  174.81    0.00    0.00   1.310   0.176   0.058   0.022   0.007   0.006   0.008   0.003   0.154
 2020 246   141  22.80  31.00  13.90   4.633   4.633   2.227   2.383   0.902   0.481   0.422   4.180   2.227   1.953   0.000   0.000  964.48  506.78  330.02  176.77    0.00    0.00   1.588   0.230   0.076   0.029   0.010   0.007   0.010   0.004   0.223
 2020 247   142  22.90  26.30  13.20   4.610   4.610   2.146   2.416   0.851   0.466   0.385   3.924   2.146   1.777   0.000   0.000  969.09  510.70  332.16  178.54    0.00    0.00   1.416   0.226   0.075   0.029   0.010   0.007   0.010   0.004   0.215
 2020 248   143  22.30  31.60   8.20   4.673   4.673   2.154   2.494   0.807   0.461   0.346   3.773   2.154   1.619   0.000   0.000  973.77  514.48  334.32  180.16    0.00    0.00   1.262   0.223   0.075   0.029   0.010   0.007   0.010   0.004   0.215
 2020 249   144  21.30  34.00  15.50   5.807   5.807   2.603   3.155   0.702   0.448   0.254   4.079   2.603   1.475   0.000   0.000  979.57  518.56  336.92  181.64    0.00    0.00   1.123   0.220   0.074   0.029   0.009   0.007   0.010   0.004   0.260
 2020 250   145  19.40  36.00  19.60   6.279   6.279   2.760   3.471   0.653   0.440   0.214   4.103   2.760   1.343   0.000   0.000  985.85  522.66  339.68  182.98    0.00    0.00   0.995   0.216   0.073   0.028   0.009   0.007   0.010   0.004   0.276
 2020 251   146  19.30  34.00  14.00   5.459   5.459   2.350   3.070   0.656   0.430   0.225   3.580   2.350   1.231   0.000   0.000  991.31  526.24  342.03  184.21    0.00    0.00   0.888   0.212   0.073   0.028   0.009   0.007   0.010   0.004   0.235
 2020 252   147   3.30  16.00   2.80   2.769   2.769   1.127   1.583   0.978   0.407   0.571   2.707   1.127   1.580   0.000   0.000  994.08  528.95  343.16  185.79    0.00    0.00   1.242   0.209   0.072   0.028   0.009   0.007   0.010   0.004   0.113
 2020 253   148   3.70   5.20   1.70   0.840   0.840   0.316   0.508   0.982   0.377   0.605   0.825   0.316   0.508   0.000   0.000  994.92  529.77  343.47  186.30    0.00    0.00   0.421   0.055   0.018   0.007   0.002   0.002   0.002   0.001   0.032
 2020 254   149   9.20  12.90   4.70   1.674   1.674   0.550   1.112   0.993   0.329   0.664   1.662   0.550   1.112   0.000   0.000  996.59  531.43  344.02  187.41    0.00    0.00   0.260   0.195   0.166   0.115   0.056   0.052   0.151   0.118   0.055
 2020 255   150  20.10  22.00   8.90   3.321   3.321   1.074   2.232   0.995   0.323   0.672   3.306   1.074   2.232   0.000   0.000  999.92  534.74  345.10  189.64    0.00    0.00   0.076   0.151   0.224   0.223   0.138   0.146   0.596   0.677   0.107
 2020 256   151  21.50  28.60   8.80   4.266   4.266   1.349   2.899   0.996   0.316   0.679   4.248   1.349   2.899   0.000   0.000   1004.    539.    346.    193.      0.      0.   0.098   0.196   0.290   0.289   0.181   0.195   0.773   0.879   0.135
 2020 257   152  21.50  29.00   5.90   3.631   3.631   1.128   2.494   0.896   0.311   0.585   3.254   1.128   2.126   0.000   0.000   1008.    542.    348.    195.      0.      0.   1.756   0.233   0.077   0.029   0.010   0.007   0.009   0.004   0.113
 2020 258   153  18.50  27.30   7.90   3.466   3.466   1.048   2.408   0.862   0.302   0.560   2.989   1.048   1.941   0.000   0.000   1011.    545.    349.    197.      0.      0.   1.574   0.231   0.077   0.029   0.010   0.007   0.009   0.004   0.105
 2020 259   154  19.30  28.20   8.60   4.035   4.035   1.185   2.833   0.733   0.294   0.440   2.959   1.185   1.774   0.000   0.000   1015.    548.    350.    198.      0.      0.   1.411   0.228   0.076   0.029   0.010   0.007   0.009   0.004   0.118
 2020 260   155  18.60  27.70   7.40   3.668   3.668   1.053   2.602   0.730   0.287   0.443   2.676   1.053   1.623   0.000   0.000   1019.    551.    351.    200.      0.      0.   1.263   0.226   0.076   0.029   0.010   0.007   0.009   0.004   0.105
 2020 261   156  18.10  26.90   8.10   3.437   3.437   0.963   2.464   0.713   0.280   0.433   2.451   0.963   1.488   0.000   0.000   1022.    553.    352.    201.      0.      0.   1.131   0.223   0.075   0.029   0.010   0.007   0.009   0.004   0.096
 2020 262   157  16.80  27.70   9.00   4.234   4.234   1.145   3.065   0.593   0.270   0.323   2.511   1.145   1.367   0.000   0.000   1027.    556.    353.    203.      0.      0.   1.012   0.221   0.075   0.029   0.009   0.007   0.009   0.004   0.114
 2020 263   158  17.20  28.20   9.60   5.345   5.345   1.395   3.906   0.497   0.261   0.235   2.654   1.395   1.258   0.000   0.000   1032.    558.    354.    204.      0.      0.   0.907   0.219   0.075   0.029   0.009   0.007   0.009   0.004   0.140
 2020 264   159  18.20  30.30  14.60   6.118   6.118   1.556   4.512   0.445   0.254   0.190   2.720   1.556   1.163   0.000   0.000   1038.    561.    356.    205.      0.      0.   0.815   0.216   0.074   0.028   0.009   0.007   0.009   0.004   0.156
 2020 265   160  18.20  29.10  10.80   4.915   4.915   1.229   3.657   0.469   0.250   0.219   2.306   1.228   1.078   0.000   0.000   1043.    564.    357.    206.      0.      0.   0.734   0.213   0.074   0.028   0.009   0.007   0.009   0.004   0.123
 2020 266   161  18.70  28.80   9.70   4.423   4.423   1.082   3.320   0.471   0.245   0.227   2.084   1.082   1.002   0.000   0.000   1047.    566.    358.    207.      0.      0.   0.661   0.211   0.073   0.028   0.009   0.007   0.009   0.004   0.108
 2020 267   162  17.40  29.20  13.00   3.997   3.997   0.956   3.025   0.473   0.239   0.233   1.889   0.956   0.933   0.000   0.000   1051.    567.    359.    208.      0.      0.   0.595   0.209   0.073   0.028   0.009   0.007   0.009   0.004   0.096
 2020 268   163  18.50  34.60  10.60   4.123   4.123   0.968   3.146   0.446   0.235   0.211   1.839   0.968   0.871   0.000   0.000   1056.    569.    360.    209.      0.      0.   0.535   0.206   0.072   0.028   0.009   0.007   0.009   0.004   0.097
 2020 269   164  18.70  36.80  10.50   5.207   5.207   1.187   4.004   0.384   0.228   0.156   2.002   1.187   0.815   0.000   0.000   1061.    571.    361.    210.      0.      0.   0.482   0.204   0.072   0.028   0.009   0.007   0.009   0.004   0.119
 2020 270   165  16.50  34.10  11.30   4.257   4.257   0.948   3.298   0.402   0.223   0.179   1.712   0.948   0.764   0.000   0.000   1065.    573.    362.    211.      0.      0.   0.434   0.202   0.072   0.028   0.009   0.007   0.009   0.004   0.095
 2020 271   166  15.80  21.70  12.50   5.134   5.134   1.089   4.004   0.352   0.212   0.140   1.806   1.089   0.718   0.000   0.000   1070.    575.    363.    211.      0.      0.   0.391   0.200   0.071   0.028   0.009   0.007   0.009   0.004   0.109
 2020 272   167  19.00  20.10   3.50   4.245   4.245   0.906   3.311   0.373   0.213   0.159   1.581   0.906   0.676   0.000   0.000   1074.    576.    364.    212.      0.      0.   0.352   0.197   0.071   0.027   0.009   0.007   0.009   0.004   0.091
 2020 273   168  18.60  29.00   3.10   4.301   4.301   0.930   3.354   0.365   0.216   0.148   1.568   0.930   0.638   0.000   0.000   1079.    578.    365.    213.      0.      0.   0.317   0.195   0.071   0.027   0.009   0.007   0.009   0.004   0.093
 2020 274   169  17.60  26.20   6.00   4.174   4.174   0.900   3.255   0.360   0.216   0.145   1.504   0.900   0.604   0.000   0.000   1083.    579.    366.    213.      0.      0.   0.285   0.193   0.070   0.027   0.009   0.007   0.009   0.004   0.090
 2020 275   170  17.70  20.40   2.80   3.073   3.073   0.665   2.397   0.403   0.216   0.186   1.238   0.665   0.573   0.000   0.000   1086.    581.    367.    214.      0.      0.   0.257   0.191   0.070   0.027   0.009   0.006   0.009   0.004   0.066
 2020 276   171  17.10  26.80   2.50   3.497   3.497   0.758   2.727   0.373   0.217   0.156   1.304   0.758   0.545   0.000   0.000   1089.    582.    368.    214.      0.      0.   0.231   0.189   0.070   0.027   0.009   0.006   0.009   0.004   0.076
 2020 277   172  15.50  22.00   4.00   3.711   3.711   0.796   2.894   0.355   0.215   0.140   1.316   0.796   0.520   0.000   0.000   1093.    583.    368.    215.      0.      0.   0.208   0.187   0.069   0.027   0.009   0.006   0.009   0.004   0.080

*DSSAT Cropping System Model Ver. 4.7.5.035 -develop  JUN 11, 2021 16:21:59

*RUN   2        : 20 IRRIG, PETPEN KCB..... MZCER047 KSRT2001    2
 MODEL          : MZCER047 - Maize
 EXPERIMENT     : KSRT2001 SB ARM 2020 KS, IRRIGATED & NON-IRRIGATED
 DATA PATH      :
 TREATMENT  2   : 20 IRRIG, PETPEN KCB..... MZCER047
  
!                                                                                                                                                                                        Soil evaporation (mm/d) by soil depth (cm):
!                                                                                                                                                                                        0-5    5-15   15-29   29-43   43-53   53-64  64-132 132-201
@YEAR DOY   DAS   SRAA  TMAXA  TMINA    REFA    EOAA    EOPA    EOSA    KCAA    KCBA    KEAA    ETAA    EPAA    ESAA    EFAA    EMAA    EOAC    ETAC    EPAC    ESAC    EFAC    EMAC    ES1D    ES2D    ES3D    ES4D    ES5D    ES6D    ES7D    ES8D   TRWUD
 2020 106     1  24.00  17.90  -7.20   4.818   0.000   0.000   0.000   0.000   0.000   0.000   0.000   0.000   0.000   0.000   0.000    0.00    0.00    0.00    0.00    0.00    0.00   0.000   0.000   0.000   0.000   0.000   0.000   0.000   0.000   0.000
 2020 107     2  23.60  16.50  -2.00   5.199   0.000   0.000   0.000   0.000   0.000   0.000   0.000   0.000   0.000   0.000   0.000    0.00    0.00    0.00    0.00    0.00    0.00   0.000   0.000   0.000   0.000   0.000   0.000   0.000   0.000   0.000
 2020 108     3  23.70  13.80  -2.00   4.020   0.000   0.000   0.000   0.000   0.000   0.000   0.000   0.000   0.000   0.000   0.000    0.00    0.00    0.00    0.00    0.00    0.00   0.000   0.000   0.000   0.000   0.000   0.000   0.000   0.000   0.000
 2020 109     4  19.70  23.60  -1.10   6.544   0.000   0.000   0.000   0.000   0.000   0.000   0.000   0.000   0.000   0.000   0.000    0.00    0.00    0.00    0.00    0.00    0.00   0.000   0.000   0.000   0.000   0.000   0.000   0.000   0.000   0.000
 2020 110     5  23.20  21.80   1.30   5.594   0.000   0.000   0.000   0.000   0.000   0.000   0.000   0.000   0.000   0.000   0.000    0.00    0.00    0.00    0.00    0.00    0.00   0.000   0.000   0.000   0.000   0.000   0.000   0.000   0.000   0.000
 2020 111     6  24.00  23.50   1.70   5.622   0.000   0.000   0.000   0.000   0.000   0.000   0.000   0.000   0.000   0.000   0.000    0.00    0.00    0.00    0.00    0.00    0.00   0.000   0.000   0.000   0.000   0.000   0.000   0.000   0.000   0.000
 2020 112     7  12.80  19.40   2.50   3.706   0.000   0.000   0.000   0.000   0.000   0.000   0.000   0.000   0.000   0.000   0.000    0.00    0.00    0.00    0.00    0.00    0.00   0.000   0.000   0.000   0.000   0.000   0.000   0.000   0.000   0.000
 2020 113     8  15.20  22.00   5.00   4.309   0.000   0.000   0.000   0.000   0.000   0.000   0.000   0.000   0.000   0.000   0.000    0.00    0.00    0.00    0.00    0.00    0.00   0.000   0.000   0.000   0.000   0.000   0.000   0.000   0.000   0.000
 2020 114     9  22.00  27.10   3.50   6.343   0.000   0.000   0.000   0.000   0.000   0.000   0.000   0.000   0.000   0.000   0.000    0.00    0.00    0.00    0.00    0.00    0.00   0.000   0.000   0.000   0.000   0.000   0.000   0.000   0.000   0.000
 2020 115    10  16.50  17.60   4.30   4.888   0.000   0.000   0.000   0.000   0.000   0.000   0.000   0.000   0.000   0.000   0.000    0.00    0.00    0.00    0.00    0.00    0.00   0.000   0.000   0.000   0.000   0.000   0.000   0.000   0.000   0.000
 2020 116    11  22.50  20.50   1.40   5.300   0.000   0.000   0.000   0.000   0.000   0.000   0.000   0.000   0.000   0.000   0.000    0.00    0.00    0.00    0.00    0.00    0.00   0.000   0.000   0.000   0.000   0.000   0.000   0.000   0.000   0.000
 2020 117    12  22.90  28.10   2.90   7.854   0.000   0.000   0.000   0.000   0.000   0.000   0.000   0.000   0.000   0.000   0.000    0.00    0.00    0.00    0.00    0.00    0.00   0.000   0.000   0.000   0.000   0.000   0.000   0.000   0.000   0.000
 2020 118    13  26.30  29.70   5.00   7.529   0.000   0.000   0.000   0.000   0.000   0.000   0.000   0.000   0.000   0.000   0.000    0.00    0.00    0.00    0.00    0.00    0.00   0.000   0.000   0.000   0.000   0.000   0.000   0.000   0.000   0.000
 2020 119    14  25.10  28.00   6.70   8.243   0.000   0.000   0.000   0.000   0.000   0.000   0.000   0.000   0.000   0.000   0.000    0.00    0.00    0.00    0.00    0.00    0.00   0.000   0.000   0.000   0.000   0.000   0.000   0.000   0.000   0.000
 2020 120    15  27.50  23.70   4.70   8.160   0.000   0.000   0.000   0.000   0.000   0.000   0.000   0.000   0.000   0.000   0.000    0.00    0.00    0.00    0.00    0.00    0.00   0.000   0.000   0.000   0.000   0.000   0.000   0.000   0.000   0.000
 2020 121    16  22.60  32.60   1.20   9.729   0.000   0.000   0.000   0.000   0.000   0.000   0.000   0.000   0.000   0.000   0.000    0.00    0.00    0.00    0.00    0.00    0.00   0.000   0.000   0.000   0.000   0.000   0.000   0.000   0.000   0.000
 2020 122    17  24.70  34.00  10.00   9.294   0.000   0.000   0.000   0.000   0.000   0.000   0.000   0.000   0.000   0.000   0.000    0.00    0.00    0.00    0.00    0.00    0.00   0.000   0.000   0.000   0.000   0.000   0.000   0.000   0.000   0.000
 2020 123    18  25.90  25.50  12.00   7.783   0.000   0.000   0.000   0.000   0.000   0.000   0.000   0.000   0.000   0.000   0.000    0.00    0.00    0.00    0.00    0.00    0.00   0.000   0.000   0.000   0.000   0.000   0.000   0.000   0.000   0.000
 2020 124    19  26.40  26.80   6.30   7.651   0.000   0.000   0.000   0.000   0.000   0.000   0.000   0.000   0.000   0.000   0.000    0.00    0.00    0.00    0.00    0.00    0.00   0.000   0.000   0.000   0.000   0.000   0.000   0.000   0.000   0.000
 2020 125    20  20.10  26.60  11.90   6.480   0.000   0.000   0.000   0.000   0.000   0.000   0.000   0.000   0.000   0.000   0.000    0.00    0.00    0.00    0.00    0.00    0.00   0.000   0.000   0.000   0.000   0.000   0.000   0.000   0.000   0.000
 2020 126    21  27.90  25.00   6.50   6.936   0.000   0.000   0.000   0.000   0.000   0.000   0.000   0.000   0.000   0.000   0.000    0.00    0.00    0.00    0.00    0.00    0.00   0.000   0.000   0.000   0.000   0.000   0.000   0.000   0.000   0.000
 2020 127    22  26.50  22.40   5.80   6.833   0.000   0.000   0.000   0.000   0.000   0.000   0.000   0.000   0.000   0.000   0.000    0.00    0.00    0.00    0.00    0.00    0.00   0.000   0.000   0.000   0.000   0.000   0.000   0.000   0.000   0.000
 2020 128    23  26.20  27.50   8.60   9.088   0.000   0.000   0.000   0.000   0.000   0.000   0.000   0.000   0.000   0.000   0.000    0.00    0.00    0.00    0.00    0.00    0.00   0.000   0.000   0.000   0.000   0.000   0.000   0.000   0.000   0.000
 2020 129    24  27.40  17.10   4.50   5.823   0.000   0.000   0.000   0.000   0.000   0.000   0.000   0.000   0.000   0.000   0.000    0.00    0.00    0.00    0.00    0.00    0.00   0.000   0.000   0.000   0.000   0.000   0.000   0.000   0.000   0.000
 2020 130    25  27.20  22.10   3.50   7.415   0.000   0.000   0.000   0.000   0.000   0.000   0.000   0.000   0.000   0.000   0.000    0.00    0.00    0.00    0.00    0.00    0.00   0.000   0.000   0.000   0.000   0.000   0.000   0.000   0.000   0.000
 2020 131    26  27.10  18.30   4.10   6.275   0.000   0.000   0.000   0.000   0.000   0.000   0.000   0.000   0.000   0.000   0.000    0.00    0.00    0.00    0.00    0.00    0.00   0.000   0.000   0.000   0.000   0.000   0.000   0.000   0.000   0.000
 2020 132    27   3.30   8.90   2.80   1.368   0.000   0.000   0.000   0.000   0.000   0.000   0.000   0.000   0.000   0.000   0.000    0.00    0.00    0.00    0.00    0.00    0.00   0.000   0.000   0.000   0.000   0.000   0.000   0.000   0.000   0.000
 2020 133    28   5.40   8.20   2.60   1.364   0.000   0.000   0.000   0.000   0.000   0.000   0.000   0.000   0.000   0.000   0.000    0.00    0.00    0.00    0.00    0.00    0.00   0.000   0.000   0.000   0.000   0.000   0.000   0.000   0.000   0.000
 2020 134    29  17.80  22.10   6.70   5.278   0.000   0.000   0.000   0.000   0.000   0.000   0.000   0.000   0.000   0.000   0.000    0.00    0.00    0.00    0.00    0.00    0.00   0.000   0.000   0.000   0.000   0.000   0.000   0.000   0.000   0.000
 2020 135    30  20.60  26.70   9.30   6.426   0.000   0.000   0.000   0.000   0.000   0.000   0.000   0.000   0.000   0.000   0.000    0.00    0.00    0.00    0.00    0.00    0.00   0.000   0.000   0.000   0.000   0.000   0.000   0.000   0.000   0.000
 2020 136    31  24.10  26.00  12.90   6.290   0.000   0.000   0.000   0.000   0.000   0.000   0.000   0.000   0.000   0.000   0.000    0.00    0.00    0.00    0.00    0.00    0.00   0.000   0.000   0.000   0.000   0.000   0.000   0.000   0.000   0.000
 2020 137    32  22.90  24.30  12.70   5.522   0.000   0.000   0.000   0.000   0.000   0.000   0.000   0.000   0.000   0.000   0.000    0.00    0.00    0.00    0.00    0.00    0.00   0.000   0.000   0.000   0.000   0.000   0.000   0.000   0.000   0.000
 2020 138    33  27.60  25.40  10.10   6.878   0.000   0.000   0.000   0.000   0.000   0.000   0.000   0.000   0.000   0.000   0.000    0.00    0.00    0.00    0.00    0.00    0.00   0.000   0.000   0.000   0.000   0.000   0.000   0.000   0.000   0.000
 2020 139    34  26.90  28.00   7.00   7.381   0.000   0.000   0.000   0.000   0.000   0.000   0.000   0.000   0.000   0.000   0.000    0.00    0.00    0.00    0.00    0.00    0.00   0.000   0.000   0.000   0.000   0.000   0.000   0.000   0.000   0.000
 2020 140    35  23.70  28.80  11.00   7.242   0.000   0.000   0.000   0.000   0.000   0.000   0.000   0.000   0.000   0.000   0.000    0.00    0.00    0.00    0.00    0.00    0.00   0.000   0.000   0.000   0.000   0.000   0.000   0.000   0.000   0.000
 2020 141    36  20.80  26.00  11.30   6.536   0.000   0.000   0.000   0.000   0.000   0.000   0.000   0.000   0.000   0.000   0.000    0.00    0.00    0.00    0.00    0.00    0.00   0.000   0.000   0.000   0.000   0.000   0.000   0.000   0.000   0.000
 2020 142    37  16.10  27.40  12.20   6.155   0.000   0.000   0.000   0.000   0.000   0.000   0.000   0.000   0.000   0.000   0.000    0.00    0.00    0.00    0.00    0.00    0.00   0.000   0.000   0.000   0.000   0.000   0.000   0.000   0.000   0.000
 2020 143    38  28.00  24.80  10.50   6.814   0.000   0.000   0.000   0.000   0.000   0.000   0.000   0.000   0.000   0.000   0.000    0.00    0.00    0.00    0.00    0.00    0.00   0.000   0.000   0.000   0.000   0.000   0.000   0.000   0.000   0.000
 2020 144    39  22.50  33.10  12.10   8.923   0.000   0.000   0.000   0.000   0.000   0.000   0.000   0.000   0.000   0.000   0.000    0.00    0.00    0.00    0.00    0.00    0.00   0.000   0.000   0.000   0.000   0.000   0.000   0.000   0.000   0.000
 2020 145    40  23.60  26.80  12.80   7.403   0.000   0.000   0.000   0.000   0.000   0.000   0.000   0.000   0.000   0.000   0.000    0.00    0.00    0.00    0.00    0.00    0.00   0.000   0.000   0.000   0.000   0.000   0.000   0.000   0.000   0.000
 2020 146    41  15.70  19.40   8.60   4.682   0.000   0.000   0.000   0.000   0.000   0.000   0.000   0.000   0.000   0.000   0.000    0.00    0.00    0.00    0.00    0.00    0.00   0.000   0.000   0.000   0.000   0.000   0.000   0.000   0.000   0.000
 2020 147    42  23.60  25.60   6.20   6.199   0.000   0.000   0.000   0.000   0.000   0.000   0.000   0.000   0.000   0.000   0.000    0.00    0.00    0.00    0.00    0.00    0.00   0.000   0.000   0.000   0.000   0.000   0.000   0.000   0.000   0.000
 2020 148    43  15.40  24.30   8.90   5.118   0.000   0.000   0.000   0.000   0.000   0.000   0.000   0.000   0.000   0.000   0.000    0.00    0.00    0.00    0.00    0.00    0.00   0.000   0.000   0.000   0.000   0.000   0.000   0.000   0.000   0.000
 2020 149    44  26.90  27.60  10.10   7.575   0.000   0.000   0.000   0.000   0.000   0.000   0.000   0.000   0.000   0.000   0.000    0.00    0.00    0.00    0.00    0.00    0.00   0.000   0.000   0.000   0.000   0.000   0.000   0.000   0.000   0.000
 2020 150    45  27.90  31.00  12.40   8.862   0.000   0.000   0.000   0.000   0.000   0.000   0.000   0.000   0.000   0.000   0.000    0.00    0.00    0.00    0.00    0.00    0.00   0.000   0.000   0.000   0.000   0.000   0.000   0.000   0.000   0.000
 2020 151    46  27.80  35.20  16.20  12.006   0.000   0.000   0.000   0.000   0.000   0.000   0.000   0.000   0.000   0.000   0.000    0.00    0.00    0.00    0.00    0.00    0.00   0.000   0.000   0.000   0.000   0.000   0.000   0.000   0.000   0.000
 2020 152    47  28.10  34.30  17.70  11.979   0.000   0.000   0.000   0.000   0.000   0.000   0.000   0.000   0.000   0.000   0.000    0.00    0.00    0.00    0.00    0.00    0.00   0.000   0.000   0.000   0.000   0.000   0.000   0.000   0.000   0.000
 2020 153    48  27.10  34.80  17.00  11.937   0.000   0.000   0.000   0.000   0.000   0.000   0.000   0.000   0.000   0.000   0.000    0.00    0.00    0.00    0.00    0.00    0.00   0.000   0.000   0.000   0.000   0.000   0.000   0.000   0.000   0.000
 2020 154    49  27.80  37.00  16.70  10.229   0.000   0.000   0.000   0.000   0.000   0.000   0.000   0.000   0.000   0.000   0.000    0.00    0.00    0.00    0.00    0.00    0.00   0.000   0.000   0.000   0.000   0.000   0.000   0.000   0.000   0.000
 2020 155    50  27.90  35.40  17.80   9.414   0.000   0.000   0.000   0.000   0.000   0.000   0.000   0.000   0.000   0.000   0.000    0.00    0.00    0.00    0.00    0.00    0.00   0.000   0.000   0.000   0.000   0.000   0.000   0.000   0.000   0.000
 2020 156    51  21.60  36.50  16.10   8.378   0.000   0.000   0.000   0.000   0.000   0.000   0.000   0.000   0.000   0.000   0.000    0.01    0.01    0.00    0.01    0.00    0.00   0.000   0.000   0.000   0.000   0.000   0.000   0.000   0.000   0.000
 2020 157    52  28.00  38.60  17.70  10.112   2.427   2.427   2.419   0.336   0.097   0.239   3.401   0.982   2.419   0.000   0.000    2.43    3.41    0.98    2.42    0.00    0.00   0.080   0.161   0.240   0.158   0.110   0.121   0.769   0.780   0.098
 2020 158    53  25.40  36.90  19.30  10.623   2.656   2.656   2.645   0.342   0.093   0.249   3.638   0.992   2.645   0.000   0.000    5.09    7.04    1.97    5.07    0.00    0.00   0.086   0.174   0.262   0.173   0.121   0.133   0.842   0.855   0.099
 2020 159    54  27.50  35.60  22.30  12.059   3.135   3.135   3.120   0.250   0.084   0.167   3.019   1.007   2.012   0.000   0.000    8.22   10.06    2.98    7.08    0.00    0.00   1.661   0.226   0.077   0.019   0.007   0.005   0.011   0.004   0.101
 2020 160    55  28.90  38.60  19.80  12.207   3.296   3.296   3.277   0.231   0.084   0.147   2.819   1.023   1.796   0.000   0.000   11.52   12.88    4.00    8.88    0.00    0.00   1.450   0.222   0.077   0.019   0.007   0.005   0.011   0.004   0.102
 2020 161    56   5.50  25.60   9.00   5.580   1.562   1.562   1.549   0.464   0.186   0.278   2.588   1.039   1.549   0.000   0.000   13.08   15.47    5.04   10.43    0.00    0.00   0.047   0.102   0.154   0.103   0.071   0.078   0.494   0.501   0.104
 2020 162    57  29.50  27.10   8.30   6.714   1.880   1.880   1.858   0.433   0.156   0.277   2.907   1.050   1.858   0.000   0.000   14.96   18.38    6.09   12.28    0.00    0.00   0.440   0.328   0.280   0.135   0.074   0.070   0.312   0.218   0.105
 2020 163    58  28.70  33.60  15.00   9.357   2.901   2.901   2.856   0.345   0.123   0.222   3.224   1.148   2.076   0.000   0.000   17.86   21.60    7.24   14.36    0.00    0.00   1.720   0.230   0.077   0.021   0.007   0.005   0.011   0.004   0.115
 2020 164    59  28.10  35.40  16.50   9.184   3.031   3.031   2.971   0.336   0.135   0.202   3.087   1.236   1.851   0.000   0.000   20.89   24.69    8.48   16.21    0.00    0.00   1.500   0.225   0.077   0.020   0.007   0.005   0.011   0.004   0.124
 2020 165    60  28.80  37.70  13.20  11.487   4.020   4.020   3.920   0.261   0.118   0.143   2.996   1.350   1.646   0.000   0.000   24.91   27.68    9.83   17.86    0.00    0.00   1.301   0.220   0.077   0.020   0.007   0.005   0.011   0.004   0.135
 2020 166    61  20.90  35.90  19.60  12.443   4.728   4.728   4.588   0.236   0.119   0.117   2.935   1.477   1.459   0.000   0.000   29.64   30.62   11.30   19.31    0.00    0.00   1.120   0.214   0.076   0.020   0.007   0.005   0.011   0.004   0.148
 2020 167    62  27.90  35.90  18.60  12.474   4.989   4.989   4.817   0.188   0.085   0.103   2.344   1.057   1.287   0.000   0.000   34.63   32.96   12.36   20.60    0.00    0.00   0.954   0.208   0.076   0.020   0.007   0.005   0.011   0.004   0.106
 2020 168    63  27.90  34.40  19.00  11.313   4.525   4.525   4.354   0.192   0.088   0.104   2.169   0.994   1.175   0.000   0.000   39.16   35.13   13.35   21.78    0.00    0.00   0.849   0.202   0.075   0.020   0.007   0.005   0.011   0.004   0.099
 2020 169    64  26.50  36.50  20.60  12.497   4.874   4.874   4.667   0.168   0.081   0.087   2.100   1.018   1.082   0.000   0.000   44.03   37.23   14.37   22.86    0.00    0.00   0.763   0.196   0.075   0.020   0.007   0.005   0.011   0.004   0.102
 2020 170    65  27.80  30.80  19.20   9.443   3.683   3.683   3.514   0.216   0.110   0.106   2.035   1.036   0.999   0.000   0.000   47.71   39.27   15.41   23.86    0.00    0.00   0.686   0.190   0.074   0.020   0.007   0.005   0.011   0.004   0.104
 2020 171    66  14.50  24.70  13.80   4.118   1.606   1.606   1.522   0.489   0.259   0.230   2.014   1.066   0.949   0.000   0.000   49.32   41.28   16.47   24.81    0.00    0.00   0.643   0.184   0.074   0.020   0.007   0.005   0.011   0.004   0.107
 2020 172    67  26.20  32.50  14.80   7.106   2.700   2.700   2.532   0.284   0.157   0.127   2.017   1.114   0.903   0.000   0.000   52.02   43.30   17.59   25.71    0.00    0.00   0.604   0.177   0.073   0.020   0.007   0.005   0.011   0.004   0.111
 2020 173    68  19.10  34.70  15.10   7.445   2.829   2.829   2.620   0.271   0.159   0.112   2.018   1.183   0.836   0.000   0.000   54.85   45.32   18.77   26.54    0.00    0.00   0.544   0.171   0.073   0.020   0.007   0.005   0.011   0.004   0.118
 2020 174    69  26.20  31.20  13.60   6.798   2.583   2.583   2.369   0.296   0.182   0.114   2.011   1.237   0.774   0.000   0.000   57.43   47.33   20.01   27.32    0.00    0.00   0.489   0.165   0.072   0.020   0.007   0.005   0.011   0.004   0.124
 2020 175    70  24.70  30.80  13.50   6.167   2.528   2.528   2.281   0.341   0.225   0.116   2.103   1.385   0.718   0.000   0.000   59.96   49.43   21.39   28.04    0.00    0.00   0.441   0.158   0.071   0.020   0.007   0.005   0.011   0.004   0.138
 2020 176    71  27.40  36.20  17.40   9.162   4.031   4.031   3.574   0.249   0.176   0.073   2.278   1.612   0.666   0.000   0.000   63.99   51.71   23.01   28.70    0.00    0.00   0.397   0.151   0.071   0.020   0.007   0.005   0.011   0.004   0.161
 2020 177    72  26.00  37.10  17.80  10.893   5.229   5.229   4.549   0.220   0.163   0.057   2.392   1.774   0.618   0.000   0.000   69.22   54.10   24.78   29.32    0.00    0.00   0.357   0.143   0.070   0.020   0.007   0.005   0.011   0.004   0.177
 2020 178    73  27.60  36.80  18.20   8.176   4.170   4.170   3.569   0.224   0.154   0.070   1.831   1.258   0.573   0.000   0.000   73.39   55.93   26.04   29.89    0.00    0.00   0.321   0.135   0.069   0.020   0.007   0.005   0.011   0.004   0.126
 2020 179    74  25.70  36.70  17.70   8.501   4.676   4.676   3.943   0.202   0.138   0.063   1.713   1.177   0.536   0.000   0.000   78.06   57.64   27.21   30.43    0.00    0.00   0.289   0.131   0.068   0.020   0.007   0.005   0.011   0.004   0.118
 2020 180    75  26.80  37.40  18.00   8.790   5.098   5.098   4.259   0.190   0.133   0.057   1.669   1.166   0.503   0.000   0.000   83.16   59.31   28.38   30.93    0.00    0.00   0.261   0.128   0.067   0.020   0.007   0.005   0.011   0.004   0.117
 2020 181    76  28.00  39.80  20.80  10.791   6.582   6.582   5.440   0.150   0.106   0.044   1.620   1.147   0.473   0.000   0.000   89.75   60.93   29.53   31.41    0.00    0.00   0.235   0.125   0.065   0.020   0.007   0.005   0.011   0.004   0.115
 2020 182    77  28.10  37.20  16.20   9.518   6.186   6.186   5.077   0.165   0.118   0.047   1.569   1.123   0.446   0.000   0.000   95.93   62.50   30.65   31.85    0.00    0.00   0.211   0.123   0.064   0.020   0.007   0.005   0.011   0.004   0.112
 2020 183    78  26.00  33.30  17.50   7.923   5.388   5.388   4.399   0.198   0.145   0.053   1.568   1.146   0.422   0.000   0.000  101.32   64.07   31.79   32.27    0.00    0.00   0.190   0.121   0.063   0.020   0.007   0.005   0.011   0.004   0.115
 2020 184    79  22.60  37.30  18.10   8.141   5.780   5.780   4.685   0.192   0.143   0.049   1.565   1.165   0.400   0.000   0.000  107.10   65.63   32.96   32.67    0.00    0.00   0.171   0.120   0.061   0.020   0.007   0.005   0.011   0.004   0.116
 2020 185    80  24.90  35.10  15.00   7.367   5.526   5.526   4.457   0.209   0.157   0.052   1.540   1.160   0.380   0.000   0.000  112.63   67.17   34.12   33.05    0.00    0.00   0.154   0.118   0.060   0.020   0.007   0.005   0.011   0.004   0.116
 2020 186    81  25.70  33.90  15.60   6.792   5.026   5.026   4.030   0.225   0.172   0.053   1.531   1.170   0.362   0.000   0.000  117.65   68.70   35.29   33.42    0.00    0.00   0.139   0.117   0.059   0.020   0.007   0.005   0.011   0.004   0.117
 2020 187    82  14.80  30.60  18.00   4.274   3.077   3.077   2.449   0.331   0.250   0.081   1.414   1.069   0.345   0.000   0.000  120.73   70.12   36.36   33.76    0.00    0.00   0.125   0.115   0.057   0.020   0.007   0.005   0.011   0.004   0.107
 2020 188    83  26.40  33.30  15.00   6.303   4.475   4.475   3.538   0.189   0.136   0.052   1.190   0.860   0.330   0.000   0.000  125.20   71.31   37.22   34.09    0.00    0.00   0.112   0.114   0.056   0.020   0.007   0.005   0.011   0.004   0.086
 2020 189    84  27.40  34.40  18.40   7.887   5.521   5.521   4.351   0.135   0.095   0.040   1.067   0.750   0.316   0.000   0.000  130.73   72.37   37.97   34.41    0.00    0.00   0.101   0.113   0.055   0.020   0.007   0.005   0.011   0.004   0.075
 2020 190    85  27.90  38.70  19.80  10.053   7.339   7.339   5.790   0.197   0.066   0.131   1.982   0.665   1.316   0.000   0.000  138.06   74.36   38.63   35.72    0.00    0.00   1.012   0.183   0.068   0.026   0.008   0.005   0.011   0.004   0.067
 2020 191    86  25.60  32.80  21.40   7.135   5.423   5.423   4.299   1.099   0.496   0.603   7.840   3.540   4.299   0.000   0.000  143.49   82.20   42.17   40.02    0.00    0.00   0.139   0.282   0.416   0.417   0.237   0.205   1.291   1.313   0.354
 2020 192    87  16.60  32.30  21.40   5.639   4.455   4.455   3.418   1.264   0.658   0.606   7.129   3.711   3.418   0.000   0.000  147.94   89.33   45.89   43.44    0.00    0.00   0.107   0.216   0.325   0.328   0.203   0.166   1.028   1.045   0.371
 2020 193    88  27.20  35.70  17.30   7.617   6.322   6.322   4.706   0.774   0.508   0.266   5.893   3.870   2.024   0.000   0.000  154.26   95.22   49.76   45.46    0.00    0.00   1.670   0.219   0.075   0.029   0.010   0.005   0.011   0.004   0.387
 2020 194    89  23.40  34.20  18.20   6.628   5.700   5.700   4.081   0.887   0.616   0.271   5.879   4.083   1.796   0.000   0.000  159.96  101.10   53.84   47.26    0.00    0.00   1.455   0.208   0.074   0.029   0.010   0.005   0.011   0.004   0.408
 2020 195    90  26.10  32.90  17.50   7.511   6.685   6.685   4.655   0.788   0.576   0.211   5.916   4.327   1.588   0.000   0.000  166.65  107.01   58.17   48.85    0.00    0.00   1.261   0.197   0.072   0.028   0.010   0.005   0.011   0.004   0.433
 2020 196    91  18.90  31.80  20.10   5.662   5.096   5.096   3.470   1.079   0.810   0.269   6.108   4.585   1.523   0.000   0.000  171.74  113.12   62.75   50.37    0.00    0.00   1.209   0.186   0.070   0.028   0.010   0.005   0.011   0.004   0.458
 2020 197    92  19.90  28.60  18.50   4.773   4.344   4.344   2.884   1.216   0.910   0.306   5.805   4.344   1.461   0.000   0.000  176.09  118.93   67.09   51.83    0.00    0.00   1.162   0.174   0.068   0.027   0.009   0.005   0.011   0.004   0.434
 2020 198    93  24.40  32.20  18.50   6.246   5.746   5.746   3.701   0.980   0.774   0.206   6.120   4.836   1.285   0.000   0.000  181.83  125.05   71.93   53.12    0.00    0.00   0.999   0.163   0.067   0.027   0.009   0.005   0.011   0.004   0.484
 2020 199    94  23.10  35.60  20.40   7.448   6.927   6.927   4.342   0.863   0.678   0.185   6.431   5.050   1.381   0.000   0.000  188.76  131.48   76.98   54.50    0.00    0.00   1.110   0.151   0.064   0.026   0.009   0.005   0.011   0.004   0.505
 2020 200    95  20.40  35.90  21.20   6.353   5.972   5.972   3.677   1.110   0.820   0.290   7.053   5.209   1.844   0.000   0.000  194.73  138.53   82.19   56.34    0.00    0.00   1.579   0.148   0.062   0.025   0.009   0.005   0.011   0.004   0.521
 2020 201    96  20.90  29.60  18.90   5.583   5.304   5.304   3.195   1.306   0.950   0.356   7.294   5.304   1.990   0.000   0.000  200.04  145.82   87.49   58.33    0.00    0.00   1.726   0.150   0.060   0.025   0.009   0.005   0.011   0.004   0.530
 2020 202    97  26.50  31.00  18.00   6.514   6.253   6.253   3.660   1.201   0.930   0.271   7.823   6.061   1.762   0.000   0.000  206.29  153.65   93.55   60.09    0.00    0.00   1.513   0.139   0.058   0.024   0.009   0.005   0.011   0.004   0.606
 2020 203    98  27.00  29.80  15.60   6.052   5.870   5.870   3.318   1.065   0.811   0.254   6.444   4.907   1.537   0.000   0.000  212.16  160.09   98.46   61.63    0.00    0.00   1.301   0.129   0.055   0.023   0.009   0.005   0.011   0.004   0.491
 2020 204    99  26.70  33.30  18.40   7.159   6.945   6.945   3.839   0.923   0.737   0.187   6.611   5.274   1.337   0.000   0.000  219.11  166.70  103.73   62.97    0.00    0.00   1.108   0.125   0.054   0.022   0.009   0.005   0.011   0.004   0.527
 2020 205   100  24.20  33.50  20.00   7.101   6.817   6.817   3.688   0.658   0.495   0.163   4.674   3.518   1.155   0.000   0.000  225.92  171.38  107.25   64.12    0.00    0.00   0.932   0.122   0.052   0.021   0.008   0.005   0.011   0.004   0.352
 2020 206   101  26.10  34.70  20.80   7.666   7.360   7.360   3.969   0.540   0.404   0.137   4.143   3.094   1.049   0.000   0.000  233.28  175.52  110.35   65.17    0.00    0.00   0.830   0.120   0.052   0.020   0.008   0.005   0.011   0.004   0.309
 2020 207   102  26.10  35.40  21.00   7.810   7.498   7.498   4.052   0.480   0.357   0.123   3.753   2.792   0.961   0.000   0.000  240.78  179.27  113.14   66.13    0.00    0.00   0.745   0.118   0.051   0.020   0.008   0.005   0.011   0.004   0.279
 2020 208   103  20.20  35.80  19.40   6.195   5.885   5.885   3.198   0.659   0.399   0.260   4.083   2.473   1.610   0.000   0.000  246.67  183.35  115.61   67.74    0.00    0.00   1.301   0.185   0.066   0.026   0.009   0.006   0.012   0.004   0.247
 2020 209   104  12.60  26.40  20.00   2.917   2.742   2.742   1.499   1.454   0.940   0.514   4.240   2.742   1.499   0.000   0.000  249.41  187.60  118.35   69.24    0.00    0.00   0.325   0.246   0.210   0.150   0.081   0.079   0.252   0.156   0.274
 2020 210   105  12.00  25.50  19.70   2.739   2.547   2.547   1.367   1.429   0.930   0.499   3.914   2.547   1.367   0.000   0.000  251.95  191.51  120.90   70.61    0.00    0.00   0.041   0.082   0.122   0.123   0.079   0.088   0.440   0.391   0.255
 2020 211   106  22.90  32.00  18.50   5.161   4.748   4.748   2.548   1.414   0.920   0.494   7.296   4.748   2.548   0.000   0.000  256.70  198.80  125.65   73.16    0.00    0.00   0.562   0.415   0.350   0.247   0.129   0.124   0.446   0.275   0.475
 2020 212   107  20.50  25.90  16.00   4.373   3.980   3.980   2.136   1.398   0.910   0.488   6.115   3.980   2.136   0.000   0.000  260.68  204.92  129.63   75.29    0.00    0.00   0.467   0.348   0.294   0.205   0.107   0.104   0.378   0.233   0.398
 2020 213   108  25.70  28.90  14.00   5.147   4.633   4.633   2.486   1.309   0.900   0.409   6.739   4.633   2.106   0.000   0.000  265.31  211.66  134.26   77.40    0.00    0.00   1.739   0.229   0.076   0.028   0.010   0.007   0.013   0.004   0.463
 2020 214   109  25.80  31.00  13.40   5.323   4.738   4.738   2.542   1.246   0.890   0.356   6.633   4.738   1.896   0.000   0.000  270.05  218.29  139.00   79.29    0.00    0.00   1.538   0.222   0.074   0.028   0.009   0.007   0.013   0.004   0.474
 2020 215   110  21.40  27.30  15.80   4.558   4.056   4.056   2.177   1.264   0.890   0.374   5.762   4.056   1.706   0.000   0.000  274.11  224.05  143.05   81.00    0.00    0.00   1.358   0.215   0.073   0.027   0.009   0.007   0.013   0.004   0.406
 2020 216   111  20.60  25.60  14.80   4.215   3.710   3.710   1.991   1.326   0.880   0.446   5.591   3.710   1.882   0.000   0.000  277.82  229.65  146.76   82.88    0.00    0.00   1.538   0.214   0.071   0.026   0.009   0.007   0.013   0.004   0.371
 2020 217   112  21.60  28.00  15.70   5.334   4.640   4.640   2.490   1.337   0.870   0.467   7.130   4.640   2.490   0.000   0.000  282.46  236.78  151.40   85.37    0.00    0.00   0.078   0.143   0.208   0.198   0.132   0.149   0.835   0.747   0.464
 2020 218   113  24.30  29.00  14.00   5.336   4.589   4.589   2.463   1.321   0.860   0.461   7.052   4.589   2.463   0.000   0.000  287.05  243.83  155.99   87.83    0.00    0.00   0.078   0.143   0.203   0.191   0.129   0.145   0.830   0.743   0.459
 2020 219   114  17.00  28.20  18.90   4.259   3.620   3.620   1.943   1.306   0.850   0.456   5.563   3.620   1.943   0.000   0.000  290.67  249.39  159.61   89.78    0.00    0.00   0.453   0.325   0.254   0.160   0.089   0.088   0.355   0.219   0.362
 2020 220   115  24.70  31.80  20.00   5.441   4.570   4.570   2.453   1.291   0.840   0.451   7.023   4.570   2.453   0.000   0.000  295.24  256.41  164.18   92.23    0.00    0.00   0.079   0.158   0.216   0.179   0.123   0.139   0.821   0.738   0.457
 2020 221   116  24.60  34.80  15.40   6.358   5.340   5.340   2.866   1.291   0.840   0.451   8.206   5.340   2.866   0.000   0.000  300.58  264.62  169.52   95.09    0.00    0.00   0.092   0.181   0.254   0.204   0.141   0.161   0.965   0.867   0.534
 2020 222   117  24.10  35.20  18.90   7.366   6.187   6.187   3.320   1.123   0.840   0.283   8.271   6.187   2.083   0.000   0.000  306.77  272.89  175.71   97.18    0.00    0.00   1.735   0.226   0.071   0.021   0.008   0.006   0.013   0.004   0.619
 2020 223   118  21.50  33.00  16.90   5.555   4.667   4.667   2.504   1.175   0.840   0.335   6.528   4.667   1.861   0.000   0.000  311.43  279.42  180.38   99.04    0.00    0.00   1.525   0.217   0.069   0.021   0.008   0.006   0.013   0.004   0.467
 2020 224   119  23.90  32.10  14.00   6.093   5.118   5.118   2.746   1.114   0.840   0.274   6.786   5.118   1.668   0.000   0.000  316.55  286.20  185.50  100.71    0.00    0.00   1.341   0.210   0.067   0.020   0.007   0.006   0.013   0.004   0.512
 2020 225   120  20.60  30.80  18.00   5.231   4.394   4.394   2.358   1.124   0.840   0.284   5.882   4.394   1.487   0.000   0.000  320.94  292.09  189.89  102.20    0.00    0.00   1.172   0.201   0.065   0.020   0.007   0.006   0.013   0.004   0.439
 2020 226   121  22.50  32.50  20.40   5.150   4.274   4.274   2.294   1.088   0.830   0.258   5.603   4.274   1.329   0.000   0.000  325.22  297.69  194.17  103.52    0.00    0.00   1.023   0.194   0.064   0.020   0.007   0.005   0.013   0.004   0.427
 2020 227   122  18.80  32.70  17.80   4.736   3.931   3.931   2.109   1.084   0.830   0.254   5.132   3.931   1.201   0.000   0.000  329.15  302.82  198.10  104.73    0.00    0.00   0.904   0.187   0.062   0.020   0.007   0.005   0.013   0.004   0.393
 2020 228   123  20.50  31.00  19.30   4.836   4.014   4.014   2.154   1.057   0.830   0.227   5.112   4.014   1.099   0.000   0.000  333.16  307.93  202.11  105.82    0.00    0.00   0.811   0.180   0.060   0.019   0.007   0.005   0.013   0.004   0.401
 2020 229   124  21.50  31.40  18.90   5.491   4.557   4.557   2.446   1.039   0.830   0.209   5.705   4.557   1.147   0.000   0.000  337.72  313.64  206.67  106.97    0.00    0.00   0.869   0.173   0.059   0.019   0.006   0.005   0.013   0.004   0.456
 2020 230   125  25.00  32.50  14.00   5.639   4.624   4.624   2.481   1.031   0.820   0.211   5.813   4.624   1.190   0.000   0.000  342.34  319.45  211.29  108.16    0.00    0.00   0.922   0.165   0.057   0.019   0.006   0.005   0.013   0.004   0.462
 2020 231   126  23.60  32.80  15.00   6.011   4.869   4.869   2.613   0.990   0.810   0.180   5.952   4.869   1.083   0.000   0.000  347.21  325.40  216.16  109.24    0.00    0.00   0.825   0.157   0.055   0.019   0.006   0.005   0.012   0.004   0.487
 2020 232   127  18.70  31.40  17.70   5.406   4.379   4.379   2.350   0.992   0.809   0.183   5.361   4.374   0.987   0.000   0.000  351.59  330.76  220.53  110.23    0.00    0.00   0.741   0.147   0.054   0.019   0.006   0.004   0.012   0.004   0.437
 2020 233   128  22.80  31.50  15.20   5.696   4.613   4.613   2.476   0.968   0.810   0.158   5.515   4.613   0.902   0.000   0.000  356.20  336.28  225.15  111.13    0.00    0.00   0.667   0.137   0.053   0.019   0.006   0.004   0.012   0.004   0.461
 2020 234   129  20.10  31.40  17.30   5.270   4.269   4.269   2.291   0.967   0.810   0.157   5.094   4.269   0.825   0.000   0.000  360.47  341.37  229.42  111.96    0.00    0.00   0.601   0.128   0.052   0.018   0.005   0.004   0.012   0.004   0.427
 2020 235   130  21.20  33.80  15.50   5.652   4.579   4.579   2.457   1.015   0.742   0.273   5.737   4.194   1.543   0.000   0.000  365.05  347.11  233.61  113.50    0.00    0.00   1.236   0.188   0.067   0.025   0.006   0.004   0.012   0.004   0.419
 2020 236   131  21.10  34.40  17.50   6.131   4.966   4.966   2.672   1.246   0.810   0.436   7.638   4.966   2.672   0.000   0.000  370.02  354.75  238.58  116.17    0.00    0.00   0.086   0.176   0.260   0.260   0.133   0.093   0.853   0.810   0.497
 2020 237   132  22.50  35.10  16.40   6.964   5.641   5.641   3.035   1.113   0.810   0.303   7.751   5.641   2.110   0.000   0.000  375.66  362.50  244.22  118.28    0.00    0.00   1.741   0.233   0.077   0.029   0.009   0.004   0.012   0.004   0.564
 2020 238   133  21.80  33.60  18.90   7.160   5.728   5.728   3.087   1.064   0.800   0.264   7.618   5.728   1.890   0.000   0.000  381.39  370.12  249.94  120.17    0.00    0.00   1.533   0.225   0.075   0.029   0.009   0.004   0.012   0.004   0.573
 2020 239   134  22.40  34.80  13.50   6.874   5.499   5.499   2.971   1.046   0.800   0.246   7.190   5.499   1.691   0.000   0.000  386.89  377.31  255.44  121.86    0.00    0.00   1.344   0.218   0.074   0.028   0.008   0.004   0.012   0.004   0.550
 2020 240   135  22.20  35.50  16.60   6.218   5.037   5.037   2.731   1.053   0.810   0.243   6.550   5.037   1.513   0.000   0.000  391.92  383.86  260.48  123.38    0.00    0.00   1.177   0.210   0.072   0.027   0.008   0.004   0.012   0.004   0.504
[...]
 2020 199    94  23.10  35.60  20.40   7.336   9.424   7.006   2.418   1.285   0.955   0.330   9.424   7.006   2.418   0.000   0.000  868.99  291.68  174.44  117.24    0.00    0.00   0.559   0.409   0.347   0.244   0.126   0.105   0.360   0.268   0.701
 2020 200    95  20.40  35.90  21.20   6.253   7.771   5.950   1.821   1.243   0.952   0.291   7.771   5.950   1.821   0.000   0.000  876.76  299.45  180.39  119.06    0.00    0.00   0.432   0.316   0.261   0.180   0.091   0.075   0.266   0.200   0.595
 2020 201    96  20.90  29.60  18.90   5.514   6.809   5.227   1.582   1.235   0.948   0.287   6.809   5.227   1.582   0.000   0.000  883.57  306.26  185.62  120.64    0.00    0.00   0.366   0.277   0.232   0.159   0.078   0.064   0.232   0.175   0.523
 2020 202    97  26.50  31.00  18.00   6.442   8.077   6.075   2.002   1.254   0.943   0.311   8.077   6.075   2.002   0.000   0.000  891.65  314.34  191.69  122.65    0.00    0.00   0.066   0.134   0.197   0.191   0.113   0.107   0.567   0.625   0.607
 2020 203    98  27.00  29.80  15.60   5.988   7.362   5.617   1.745   1.229   0.938   0.291   7.362   5.617   1.745   0.000   0.000  899.01  321.70  197.31  124.39    0.00    0.00   1.441   0.194   0.063   0.024   0.007   0.005   0.009   0.003   0.562
 2020 204    99  26.70  33.30  18.40   7.066   8.969   6.589   2.381   1.197   0.932   0.264   8.456   6.589   1.867   0.000   0.000  907.98  330.16  203.90  126.26    0.00    0.00   1.517   0.222   0.073   0.027   0.008   0.005   0.010   0.004   0.659
 2020 205   100  24.20  33.50  20.00   7.000   8.976   6.496   2.480   1.166   0.928   0.238   8.161   6.496   1.665   0.000   0.000  916.96  338.32  210.39  127.92    0.00    0.00   1.325   0.215   0.071   0.026   0.008   0.005   0.010   0.004   0.650
 2020 206   101  26.10  34.70  20.80   7.552   9.700   6.977   2.723   1.120   0.924   0.196   8.461   6.977   1.483   0.000   0.000  926.66  346.78  217.37  129.41    0.00    0.00   1.153   0.208   0.069   0.026   0.008   0.005   0.010   0.004   0.698
 2020 207   102  26.10  35.40  21.00   7.686   9.835   7.073   2.761   1.092   0.920   0.171   8.389   7.073   1.316   0.000   0.000  936.49  355.17  224.44  130.72    0.00    0.00   0.996   0.201   0.068   0.025   0.008   0.005   0.010   0.004   0.707
 2020 208   103  20.20  35.80  19.40   6.112   7.617   5.606   2.011   1.204   0.917   0.287   7.361   5.606   1.755   0.000   0.000  944.11  362.53  230.05  132.48    0.00    0.00   1.404   0.224   0.074   0.027   0.008   0.005   0.010   0.004   0.561
 2020 209   104  12.60  26.40  20.00   2.923   3.268   2.671   0.597   1.118   0.914   0.204   3.268   2.671   0.597   0.000   0.000  947.38  365.80  232.72  133.07    0.00    0.00   0.142   0.107   0.092   0.063   0.025   0.019   0.082   0.067   0.267
 2020 210   105  12.00  25.50  19.70   2.749   3.058   2.500   0.558   1.113   0.910   0.203   3.058   2.500   0.558   0.000   0.000  950.43  368.85  235.22  133.63    0.00    0.00   0.020   0.039   0.058   0.058   0.030   0.024   0.151   0.179   0.250
 2020 211   106  22.90  32.00  18.50   5.114   6.047   4.607   1.440   1.182   0.901   0.282   6.047   4.607   1.440   0.000   0.000  956.48  374.90  239.83  135.07    0.00    0.00   0.347   0.257   0.216   0.152   0.067   0.044   0.197   0.162   0.461
 2020 212   107  20.50  25.90  16.00   4.356   5.204   3.886   1.318   1.195   0.892   0.303   5.204   3.886   1.318   0.000   0.000  961.68  380.10  243.71  136.39    0.00    0.00   0.315   0.235   0.199   0.140   0.061   0.040   0.180   0.149   0.389
 2020 213   108  25.70  28.90  14.00   5.099   6.093   4.503   1.590   1.195   0.883   0.312   6.093   4.503   1.590   0.000   0.000  967.78  386.20  248.22  137.98    0.00    0.00   0.056   0.112   0.164   0.164   0.087   0.065   0.426   0.516   0.450
 2020 214   109  25.80  31.00  13.40   5.253   6.348   4.592   1.756   1.209   0.874   0.334   6.348   4.592   1.756   0.000   0.000  974.13  392.55  252.81  139.74    0.00    0.00   1.455   0.193   0.063   0.024   0.007   0.003   0.008   0.003   0.459
 2020 215   110  21.40  27.30  15.80   4.532   5.375   3.921   1.454   1.186   0.865   0.321   5.375   3.921   1.454   0.000   0.000  979.50  397.92  256.73  141.19    0.00    0.00   1.186   0.171   0.056   0.022   0.006   0.003   0.007   0.003   0.392
 2020 216   111  20.60  25.60  14.80   4.201   4.954   3.596   1.358   1.179   0.856   0.323   4.954   3.596   1.358   0.000   0.000  984.45  402.87  260.33  142.55    0.00    0.00   1.121   0.153   0.049   0.019   0.005   0.003   0.006   0.003   0.360
 2020 217   112  21.60  28.00  15.70   5.280   6.609   4.471   2.138   1.252   0.847   0.405   6.609   4.471   2.138   0.000   0.000  991.06  409.48  264.80  144.69    0.00    0.00   0.534   0.386   0.311   0.217   0.092   0.062   0.287   0.248   0.447
 2020 218   113  24.30  29.00  14.00   5.282   6.448   4.424   2.025   1.221   0.837   0.383   6.448   4.424   2.025   0.000   0.000  997.51  415.93  269.22  146.71    0.00    0.00   0.075   0.146   0.204   0.199   0.103   0.082   0.537   0.679   0.442
 2020 219   114  17.00  28.20  18.90   4.228   5.088   3.502   1.587   1.203   0.828   0.375   5.088   3.502   1.587   0.000   0.000   1003.    421.    273.    148.      0.      0.   0.396   0.296   0.236   0.156   0.065   0.046   0.209   0.184   0.350
 2020 220   115  24.70  31.80  20.00   5.403   6.352   4.425   1.928   1.176   0.819   0.357   6.352   4.425   1.928   0.000   0.000   1009.    427.    277.    150.      0.      0.   0.072   0.144   0.209   0.190   0.093   0.076   0.500   0.643   0.442
 2020 221   116  24.60  34.80  15.40   6.280   7.839   5.086   2.753   1.248   0.810   0.438   7.839   5.086   2.753   0.000   0.000   1017.    435.    282.    153.      0.      0.   0.102   0.204   0.296   0.274   0.131   0.109   0.713   0.925   0.509
 2020 222   117  24.10  35.20  18.90   7.242   9.278   5.800   3.477   1.087   0.801   0.287   7.875   5.800   2.075   0.000   0.000   1026.    443.    288.    155.      0.      0.   1.724   0.229   0.074   0.026   0.007   0.004   0.008   0.004   0.580
 2020 223   118  21.50  33.00  16.90   5.487   6.740   4.342   2.397   1.129   0.791   0.338   6.194   4.342   1.852   0.000   0.000   1033.    449.    292.    157.      0.      0.   1.510   0.222   0.072   0.026   0.006   0.004   0.008   0.004   0.434
 2020 224   119  23.90  32.10  14.00   6.023   7.561   4.709   2.853   1.058   0.782   0.276   6.370   4.709   1.661   0.000   0.000   1040.    456.    297.    159.      0.      0.   1.328   0.216   0.071   0.025   0.006   0.004   0.008   0.004   0.471
 2020 225   120  20.60  30.80  18.00   5.173   6.314   3.994   2.319   1.141   0.772   0.369   5.903   3.994   1.909   0.000   0.000   1047.    462.    301.    160.      0.      0.   1.546   0.232   0.076   0.028   0.009   0.006   0.009   0.004   0.399
 2020 226   121  22.50  32.50  20.40   5.109   6.011   3.895   2.116   1.176   0.762   0.414   6.011   3.895   2.116   0.000   0.000   1053.    468.    305.    163.      0.      0.   0.070   0.144   0.214   0.214   0.140   0.155   0.540   0.639   0.389
 2020 227   122  18.80  32.70  17.80   4.683   5.626   3.524   2.102   1.201   0.752   0.449   5.626   3.524   2.102   0.000   0.000   1058.    473.    308.    165.      0.      0.   0.068   0.141   0.210   0.210   0.134   0.147   0.557   0.634   0.352
 2020 228   123  20.50  31.00  19.30   4.796   5.698   3.561   2.137   1.188   0.742   0.446   5.698   3.561   2.137   0.000   0.000   1064.    479.    312.    167.      0.      0.   0.069   0.143   0.212   0.212   0.135   0.149   0.570   0.648   0.356
 2020 229   124  21.50  31.40  18.90   5.429   6.655   3.976   2.680   1.122   0.732   0.390   6.093   3.976   2.117   0.000   0.000   1071.    485.    316.    169.      0.      0.   1.752   0.231   0.075   0.029   0.010   0.007   0.009   0.004   0.398
 2020 230   125  25.00  32.50  14.00   5.566   6.857   4.020   2.838   1.083   0.722   0.361   6.027   4.020   2.007   0.000   0.000   1078.    491.    320.    171.      0.      0.   1.645   0.229   0.074   0.028   0.010   0.007   0.009   0.004   0.402
 2020 231   126  23.60  32.80  15.00   5.940   7.423   4.229   3.194   1.017   0.712   0.305   6.042   4.229   1.812   0.000   0.000   1085.    497.    324.    173.      0.      0.   1.457   0.225   0.073   0.028   0.009   0.007   0.009   0.004   0.423
 2020 232   127  18.70  31.40  17.70   5.332   6.632   3.742   2.890   1.008   0.702   0.307   5.377   3.742   1.635   0.000   0.000   1092.    502.    328.    174.      0.      0.   1.286   0.220   0.072   0.028   0.009   0.007   0.009   0.004   0.374
 2020 233   128  22.80  31.50  15.20   5.629   6.999   3.893   3.106   0.954   0.692   0.263   5.371   3.893   1.478   0.000   0.000   1099.    508.    332.    176.      0.      0.   1.136   0.215   0.071   0.027   0.009   0.007   0.009   0.004   0.389
 2020 234   129  20.10  31.40  17.30   5.201   6.401   3.543   2.858   0.938   0.681   0.257   4.878   3.543   1.335   0.000   0.000   1105.    513.    335.    177.      0.      0.   0.999   0.211   0.070   0.027   0.009   0.007   0.009   0.004   0.354
 2020 235   130  21.20  33.80  15.50   5.588   6.951   3.748   3.203   0.889   0.671   0.218   4.967   3.748   1.219   0.000   0.000   1112.    518.    339.    178.      0.      0.   0.889   0.207   0.069   0.026   0.009   0.007   0.009   0.004   0.375
 2020 236   131  21.10  34.40  17.50   6.050   7.603   3.994   3.608   0.846   0.660   0.185   5.116   3.994   1.122   0.000   0.000   1120.    523.    343.    180.      0.      0.   0.798   0.202   0.068   0.026   0.009   0.006   0.009   0.004   0.399
 2020 237   132  22.50  35.10  16.40   6.882   8.852   4.472   4.381   0.800   0.649   0.150   5.504   4.469   1.035   0.000   0.000   1128.    528.    348.    181.      0.      0.   0.718   0.197   0.066   0.026   0.009   0.006   0.009   0.004   0.447
 2020 238   133  21.80  33.60  18.90   7.030   9.099   4.493   4.606   0.775   0.639   0.136   5.448   4.493   0.956   0.000   0.000   1137.    534.    352.    182.      0.      0.   0.646   0.192   0.065   0.025   0.008   0.006   0.009   0.004   0.449
 2020 239   134  22.40  34.80  13.50   6.831   8.838   4.293   4.545   0.758   0.628   0.129   5.177   4.293   0.884   0.000   0.000   1146.    539.    356.    182.      0.      0.   0.582   0.187   0.064   0.025   0.008   0.006   0.009   0.004   0.429
 2020 240   135  22.20  35.50  16.60   6.148   7.726   3.797   3.928   0.751   0.618   0.133   4.617   3.797   0.819   0.000   0.000   1154.    544.    360.    183.      0.      0.   0.524   0.182   0.063   0.024   0.008   0.006   0.009   0.004   0.380
 2020 241   136  22.00  35.50  17.20   6.216   7.815   3.772   4.043   0.856   0.607   0.249   5.320   3.772   1.548   0.000   0.000   1162.    549.    364.    185.      0.      0.   1.202   0.215   0.072   0.028   0.010   0.007   0.010   0.004   0.377
 2020 242   137  11.50  24.60  17.20   2.625   2.977   1.564   1.413   1.134   0.596   0.538   2.977   1.564   1.413   0.000   0.000   1165.    552.    366.    186.      0.      0.   0.315   0.238   0.201   0.143   0.077   0.075   0.224   0.140   0.156
 2020 243   138  19.90  33.30  16.00   4.706   5.707   2.753   2.955   1.213   0.585   0.628   5.707   2.753   2.955   0.000   0.000   1171.    558.    368.    189.      0.      0.   0.651   0.489   0.416   0.295   0.156   0.150   0.498   0.299   0.275
 2020 244   139  22.40  24.60  14.00   4.388   5.311   2.517   2.794   1.210   0.574   0.637   5.311   2.517   2.794   0.000   0.000   1176.    563.    371.    192.      0.      0.   0.085   0.172   0.257   0.258   0.164   0.180   0.906   0.772   0.252
 2020 245   140  13.90  25.80  15.20   3.139   3.665   1.765   1.899   1.167   0.562   0.605   3.665   1.765   1.899   0.000   0.000   1180.    566.    373.    194.      0.      0.   1.562   0.210   0.070   0.027   0.009   0.007   0.011   0.003   0.177
 2020 246   141  22.80  31.00  13.90   4.584   5.523   2.527   2.995   0.967   0.551   0.416   4.434   2.527   1.907   0.000   0.000   1185.    571.    375.    196.      0.      0.   1.542   0.227   0.076   0.029   0.010   0.007   0.013   0.004   0.253
 2020 247   142  22.90  26.30  13.20   4.579   5.578   2.474   3.104   0.919   0.540   0.378   4.207   2.474   1.733   0.000   0.000   1191.    575.    378.    197.      0.      0.   1.373   0.223   0.075   0.029   0.010   0.007   0.012   0.004   0.247
 2020 248   143  22.30  31.60   8.20   4.624   5.755   2.448   3.308   0.870   0.529   0.341   4.024   2.448   1.577   0.000   0.000   1196.    579.    380.    199.      0.      0.   1.222   0.220   0.074   0.029   0.010   0.007   0.012   0.004   0.245
 2020 249   144  21.30  34.00  15.50   5.748   7.217   2.980   4.237   0.768   0.518   0.250   4.416   2.980   1.436   0.000   0.000   1204.    584.    383.    201.      0.      0.   1.085   0.216   0.073   0.028   0.009   0.007   0.012   0.004   0.298
 2020 250   145  19.40  36.00  19.60   6.177   7.836   3.135   4.701   0.719   0.507   0.211   4.439   3.135   1.304   0.000   0.000   1211.    588.    386.    202.      0.      0.   0.959   0.212   0.073   0.028   0.009   0.007   0.012   0.004   0.313
 2020 251   146  19.30  34.00  14.00   5.417   6.825   2.690   4.135   0.718   0.497   0.221   3.888   2.690   1.198   0.000   0.000   1218.    592.    389.    203.      0.      0.   0.858   0.208   0.072   0.028   0.009   0.007   0.012   0.004   0.269
 2020 252   147   3.30  16.00   2.80   2.544   3.357   1.236   2.121   1.095   0.486   0.609   2.786   1.236   1.550   0.000   0.000   1222.    595.    390.    205.      0.      0.   1.215   0.205   0.071   0.027   0.009   0.007   0.012   0.004   0.124
 2020 253   148   3.70   5.20   1.70   0.705   0.817   0.316   0.501   1.159   0.448   0.711   0.817   0.316   0.501   0.000   0.000   1222.    595.    390.    205.      0.      0.   0.414   0.054   0.018   0.007   0.002   0.002   0.003   0.001   0.032
 2020 254   149   9.20  12.90   4.70   1.691   1.945   0.646   1.300   1.150   0.382   0.768   1.945   0.646   1.300   0.000   0.000   1224.    597.    391.    206.      0.      0.   0.295   0.222   0.187   0.127   0.062   0.059   0.218   0.131   0.065
 2020 255   150  20.10  22.00   8.90   3.316   3.927   1.237   2.689   1.184   0.373   0.811   3.927   1.237   2.689   0.000   0.000   1228.    601.    392.    209.      0.      0.   0.086   0.172   0.254   0.253   0.153   0.161   0.859   0.752   0.124
 2020 256   151  21.50  28.60   8.80   4.227   5.204   1.542   3.663   1.231   0.365   0.866   5.204   1.542   3.663   0.000   0.000   1234.    607.    394.    213.      0.      0.   0.117   0.233   0.345   0.343   0.214   0.218   1.168   1.025   0.154
 2020 257   152  21.50  29.00   5.90   3.570   4.420   1.271   3.148   0.950   0.356   0.594   3.391   1.271   2.120   0.000   0.000   1238.    610.    395.    215.      0.      0.   1.750   0.232   0.077   0.029   0.010   0.007   0.012   0.004   0.127
 2020 258   153  18.50  27.30   7.90   3.434   4.181   1.193   2.988   0.911   0.347   0.563   3.128   1.193   1.934   0.000   0.000   1242.    613.    396.    217.      0.      0.   1.568   0.230   0.076   0.029   0.010   0.007   0.012   0.004   0.119
 2020 259   154  19.30  28.20   8.60   4.005   4.938   1.358   3.581   0.780   0.339   0.441   3.125   1.358   1.768   0.000   0.000   1247.    616.    398.    219.      0.      0.   1.404   0.227   0.076   0.029   0.009   0.007   0.012   0.004   0.136
 2020 260   155  18.60  27.70   7.40   3.638   4.467   1.202   3.264   0.775   0.331   0.444   2.819   1.202   1.616   0.000   0.000   1252.    619.    399.    220.      0.      0.   1.256   0.225   0.075   0.029   0.009   0.007   0.012   0.004   0.120
 2020 261   156  18.10  26.90   8.10   3.410   4.148   1.099   3.049   0.757   0.322   0.434   2.579   1.099   1.481   0.000   0.000   1256.    622.    400.    222.      0.      0.   1.124   0.222   0.075   0.029   0.009   0.006   0.012   0.004   0.110
 2020 262   157  16.80  27.70   9.00   4.210   5.274   1.323   3.951   0.637   0.314   0.323   2.682   1.323   1.359   0.000   0.000   1261.    624.    401.    223.      0.      0.   1.005   0.220   0.074   0.028   0.009   0.006   0.012   0.004   0.132
 2020 263   158  17.20  28.20   9.60   5.316   6.928   1.629   5.299   0.542   0.306   0.235   2.880   1.629   1.251   0.000   0.000   1268.    627.    403.    224.      0.      0.   0.901   0.217   0.074   0.028   0.009   0.006   0.012   0.004   0.163
 2020 264   159  18.20  30.30  14.60   6.041   7.930   1.805   6.125   0.490   0.299   0.191   2.961   1.805   1.157   0.000   0.000   1276.    630.    405.    225.      0.      0.   0.810   0.214   0.073   0.028   0.009   0.006   0.012   0.004   0.180
 2020 265   160  18.20  29.10  10.80   4.883   6.210   1.423   4.788   0.511   0.291   0.219   2.493   1.422   1.072   0.000   0.000   1282.    633.    406.    226.      0.      0.   0.728   0.211   0.073   0.028   0.009   0.006   0.012   0.004   0.142
 2020 266   161  18.70  28.80   9.70   4.399   5.507   1.250   4.257   0.510   0.284   0.226   2.245   1.250   0.995   0.000   0.000   1288.    635.    407.    227.      0.      0.   0.656   0.209   0.072   0.028   0.009   0.006   0.012   0.004   0.125
 2020 267   162  17.40  29.20  13.00   3.968   4.846   1.099   3.747   0.511   0.277   0.234   2.026   1.099   0.927   0.000   0.000   1292.    637.    409.    228.      0.      0.   0.590   0.206   0.072   0.028   0.009   0.006   0.012   0.004   0.110
 2020 268   163  18.50  34.60  10.60   4.114   5.125   1.111   4.014   0.480   0.270   0.210   1.976   1.111   0.865   0.000   0.000   1297.    639.    410.    229.      0.      0.   0.531   0.204   0.072   0.027   0.009   0.006   0.012   0.004   0.111
 2020 269   164  18.70  36.80  10.50   5.272   6.685   1.389   5.296   0.417   0.263   0.153   2.198   1.389   0.809   0.000   0.000   1304.    641.    411.    230.      0.      0.   0.478   0.202   0.071   0.027   0.009   0.006   0.012   0.004   0.139
 2020 270   165  16.50  34.10  11.30   4.260   5.353   1.094   4.259   0.435   0.257   0.178   1.852   1.094   0.758   0.000   0.000   1310.    643.    412.    231.      0.      0.   0.431   0.199   0.071   0.027   0.009   0.006   0.012   0.004   0.109
 2020 271   166  15.80  21.70  12.50   5.037   6.651   1.264   5.387   0.392   0.251   0.141   1.977   1.264   0.712   0.000   0.000   1316.    645.    413.    232.      0.      0.   0.388   0.197   0.070   0.027   0.009   0.006   0.012   0.004   0.126
 2020 272   167  19.00  20.10   3.50   4.220   5.505   1.059   4.446   0.410   0.251   0.159   1.730   1.059   0.671   0.000   0.000   1322.    647.    414.    232.      0.      0.   0.349   0.194   0.070   0.027   0.009   0.006   0.012   0.004   0.106
 2020 273   168  18.60  29.00   3.10   4.356   5.520   1.094   4.426   0.396   0.251   0.145   1.727   1.094   0.633   0.000   0.000   1327.    648.    416.    233.      0.      0.   0.314   0.192   0.069   0.027   0.009   0.006   0.012   0.004   0.109
 2020 274   169  17.60  26.20   6.00   4.171   5.322   1.047   4.275   0.395   0.251   0.144   1.646   1.047   0.599   0.000   0.000   1333.    650.    417.    233.      0.      0.   0.283   0.190   0.069   0.027   0.009   0.006   0.012   0.004   0.105
 2020 275   170  17.70  20.40   2.80   3.062   3.828   0.769   3.059   0.436   0.251   0.185   1.336   0.769   0.568   0.000   0.000   1336.    651.    417.    234.      0.      0.   0.255   0.188   0.069   0.027   0.009   0.006   0.012   0.004   0.077
 2020 276   171  17.10  26.80   2.50   3.517   4.417   0.883   3.534   0.405   0.251   0.154   1.423   0.883   0.540   0.000   0.000   1341.    653.    418.    235.      0.      0.   0.229   0.186   0.068   0.026   0.009   0.006   0.012   0.004   0.088
 2020 277   172  15.50  22.00   4.00   3.702   4.734   0.929   3.805   0.390   0.251   0.139   1.444   0.929   0.515   0.000   0.000   1346.    654.    419.    235.      0.      0.   0.206   0.184   0.068   0.026   0.009   0.006   0.012   0.004   0.093
