*SOIL-PLANT-ATMOSPHERE MODULE OUTPUT FILE

*DSSAT Cropping System Model Ver. 4.7.5.035 -develop  JUN 14, 2021 14:17:00

*RUN   1        : 20 IRRIG, PETPEN NO KCB.. MZCER047 KSRT2001    1
 MODEL          : MZCER047 - Maize
 EXPERIMENT     : KSRT2001 SB ARM 2020 KS, IRRIGATED
 DATA PATH      :
 TREATMENT  1   : 20 IRRIG, PETPEN NO KCB.. MZCER047
  
!                                                                                                                                                                                        Soil evaporation (mm/d) by soil depth (cm):
!                                                                                                                                                                                        0-5    5-15   15-29   29-43   43-53   53-64  64-132 132-201
@YEAR DOY   DAS   SRAA  TMAXA  TMINA    REFA    EOAA    EOPA    EOSA    KCAA    KCBA    KEAA    ETAA    EPAA    ESAA    EFAA    EMAA    EOAC    ETAC    EPAC    ESAC    EFAC    EMAC    ES1D    ES2D    ES3D    ES4D    ES5D    ES6D    ES7D    ES8D   TRWUD
 2020 106     1  24.00  17.90  -7.20   4.818   4.818   0.000   4.818   0.300   0.000   0.300   1.443   0.000   1.443   0.000   0.000    4.82    1.44    0.00    1.44    0.00    0.00   1.194   0.158   0.046   0.017   0.007   0.005   0.012   0.004   0.000
 2020 107     2  23.60  16.50  -2.00   5.189   5.189   0.000   5.189   0.255   0.000   0.255   1.323   0.000   1.323   0.000   0.000   10.01    2.77    0.00    2.77    0.00    0.00   1.075   0.157   0.046   0.017   0.007   0.005   0.012   0.004   0.000
 2020 108     3  23.70  13.80  -2.00   3.998   3.998   0.000   3.998   0.304   0.000   0.304   1.215   0.000   1.215   0.000   0.000   14.00    3.98    0.00    3.98    0.00    0.00   0.968   0.156   0.045   0.017   0.007   0.005   0.012   0.004   0.000
 2020 109     4  19.70  23.60  -1.10   6.512   6.512   0.000   6.512   0.172   0.000   0.172   1.117   0.000   1.117   0.000   0.000   20.52    5.10    0.00    5.10    0.00    0.00   0.871   0.155   0.045   0.017   0.007   0.005   0.012   0.004   0.000
 2020 110     5  23.20  21.80   1.30   5.543   5.543   0.000   5.543   0.186   0.000   0.186   1.029   0.000   1.029   0.000   0.000   26.06    6.13    0.00    6.13    0.00    0.00   0.784   0.154   0.045   0.017   0.007   0.005   0.012   0.004   0.000
 2020 111     6  24.00  23.50   1.70   5.551   5.551   0.000   5.551   0.171   0.000   0.171   0.950   0.000   0.950   0.000   0.000   31.61    7.08    0.00    7.08    0.00    0.00   0.706   0.153   0.045   0.017   0.007   0.005   0.012   0.004   0.000
 2020 112     7  12.80  19.40   2.50   3.666   3.666   0.000   3.666   0.251   0.000   0.251   0.918   0.000   0.918   0.000   0.000   35.28    8.00    0.00    8.00    0.00    0.00   0.675   0.152   0.045   0.017   0.007   0.005   0.012   0.004   0.000
 2020 113     8  15.20  22.00   5.00   4.254   4.254   0.000   4.254   0.242   0.000   0.242   1.030   0.000   1.030   0.000   0.000   39.53    9.03    0.00    9.03    0.00    0.00   0.788   0.151   0.045   0.017   0.007   0.005   0.012   0.004   0.000
 2020 114     9  22.00  27.10   3.50   6.246   6.246   0.000   6.246   0.174   0.000   0.174   1.090   0.000   1.090   0.000   0.000   45.78   10.12    0.00   10.12    0.00    0.00   0.849   0.150   0.045   0.017   0.007   0.005   0.012   0.004   0.000
 2020 115    10  16.50  17.60   4.30   4.840   4.840   0.000   4.840   0.207   0.000   0.207   1.004   0.000   1.004   0.000   0.000   50.62   11.12    0.00   11.12    0.00    0.00   0.764   0.149   0.045   0.017   0.007   0.005   0.012   0.004   0.000
 2020 116    11  22.50  20.50   1.40   5.200   5.200   0.000   5.200   0.178   0.000   0.178   0.927   0.000   0.927   0.000   0.000   55.82   12.05    0.00   12.05    0.00    0.00   0.688   0.148   0.045   0.017   0.007   0.005   0.012   0.004   0.000
 2020 117    12  22.90  28.10   2.90   7.733   7.733   0.000   7.733   0.111   0.000   0.111   0.857   0.000   0.857   0.000   0.000   63.55   12.90    0.00   12.90    0.00    0.00   0.619   0.147   0.045   0.017   0.007   0.005   0.012   0.004   0.000
 2020 118    13  26.30  29.70   5.00   7.354   7.354   0.000   7.354   0.108   0.000   0.108   0.794   0.000   0.794   0.000   0.000   70.91   13.70    0.00   13.70    0.00    0.00   0.557   0.146   0.045   0.017   0.007   0.005   0.012   0.004   0.000
 2020 119    14  25.10  28.00   6.70   8.102   8.102   0.000   8.102   0.091   0.000   0.091   0.737   0.000   0.737   0.000   0.000   79.01   14.43    0.00   14.43    0.00    0.00   0.502   0.145   0.045   0.017   0.007   0.005   0.012   0.004   0.000
 2020 120    15  27.50  23.70   4.70   8.015   8.015   0.000   8.015   0.086   0.000   0.086   0.686   0.000   0.686   0.000   0.000   87.02   15.12    0.00   15.12    0.00    0.00   0.452   0.144   0.045   0.017   0.007   0.005   0.012   0.004   0.000
 2020 121    16  22.60  32.60   1.20   9.571   9.571   0.000   9.571   0.067   0.000   0.067   0.640   0.000   0.640   0.000   0.000   96.59   15.76    0.00   15.76    0.00    0.00   0.407   0.143   0.045   0.017   0.007   0.005   0.012   0.004   0.000
 2020 122    17  24.70  34.00  10.00   9.090   9.090   0.000   9.090   0.066   0.000   0.066   0.599   0.000   0.599   0.000   0.000  105.68   16.36    0.00   16.36    0.00    0.00   0.366   0.142   0.045   0.017   0.007   0.005   0.012   0.004   0.000
 2020 123    18  25.90  25.50  12.00   7.624   7.624   0.000   7.624   0.074   0.000   0.074   0.561   0.000   0.561   0.000   0.000  113.31   16.92    0.00   16.92    0.00    0.00   0.330   0.141   0.044   0.017   0.007   0.005   0.012   0.004   0.000
 2020 124    19  26.40  26.80   6.30   7.463   7.463   0.000   7.463   0.071   0.000   0.071   0.527   0.000   0.527   0.000   0.000  120.77   17.45    0.00   17.45    0.00    0.00   0.297   0.141   0.044   0.017   0.007   0.005   0.012   0.004   0.000
 2020 125    20  20.10  26.60  11.90   6.347   6.347   0.000   6.347   0.078   0.000   0.078   0.497   0.000   0.497   0.000   0.000  127.12   17.95    0.00   17.95    0.00    0.00   0.267   0.140   0.044   0.017   0.007   0.005   0.012   0.004   0.000
 2020 126    21  27.90  25.00   6.50   6.717   6.717   0.000   6.717   0.070   0.000   0.070   0.469   0.000   0.469   0.000   0.000  133.84   18.41    0.00   18.41    0.00    0.00   0.241   0.139   0.044   0.017   0.007   0.005   0.012   0.004   0.000
 2020 127    22  26.50  22.40   5.80   6.643   6.643   0.000   6.643   0.067   0.000   0.067   0.444   0.000   0.444   0.000   0.000  140.48   18.86    0.00   18.86    0.00    0.00   0.217   0.138   0.044   0.017   0.007   0.005   0.012   0.004   0.000
 2020 128    23  26.20  27.50   8.60   8.907   8.907   0.000   8.907   0.047   0.000   0.047   0.421   0.000   0.421   0.000   0.000  149.39   19.28    0.00   19.28    0.00    0.00   0.195   0.137   0.044   0.017   0.007   0.005   0.012   0.004   0.000
 2020 129    24  27.40  17.10   4.50   5.675   5.675   0.000   5.675   0.071   0.000   0.071   0.401   0.000   0.401   0.000   0.000  155.06   19.68    0.00   19.68    0.00    0.00   0.176   0.136   0.044   0.017   0.007   0.005   0.012   0.004   0.000
 2020 130    25  27.20  22.10   3.50   7.243   7.243   0.000   7.243   0.053   0.000   0.053   0.382   0.000   0.382   0.000   0.000  162.30   20.06    0.00   20.06    0.00    0.00   0.158   0.135   0.044   0.017   0.007   0.005   0.012   0.004   0.000
 2020 131    26  27.10  18.30   4.10   6.105   6.105   0.000   6.105   0.060   0.000   0.060   0.366   0.000   0.366   0.000   0.000  168.41   20.43    0.00   20.43    0.00    0.00   0.142   0.134   0.044   0.017   0.007   0.005   0.012   0.004   0.000
 2020 132    27   3.30   8.90   2.80   1.353   1.353   0.000   1.353   0.392   0.000   0.392   0.530   0.000   0.530   0.000   0.000  169.76   20.96    0.00   20.96    0.00    0.00   0.308   0.133   0.044   0.017   0.007   0.005   0.012   0.004   0.000
 2020 133    28   5.40   8.20   2.60   1.337   1.337   0.000   1.337   0.526   0.000   0.526   0.703   0.000   0.703   0.000   0.000  171.10   21.66    0.00   21.66    0.00    0.00   0.481   0.132   0.044   0.017   0.007   0.005   0.012   0.004   0.000
 2020 134    29  17.80  22.10   6.70   5.165   5.165   0.000   5.165   0.133   0.000   0.133   0.689   0.000   0.689   0.000   0.000  176.26   22.35    0.00   22.35    0.00    0.00   0.468   0.131   0.044   0.017   0.007   0.005   0.012   0.004   0.000
 2020 135    30  20.60  26.70   9.30   6.266   6.266   0.000   6.266   0.104   0.000   0.104   0.651   0.000   0.651   0.000   0.000  182.53   23.00    0.00   23.00    0.00    0.00   0.432   0.131   0.044   0.017   0.007   0.005   0.012   0.004   0.000
 2020 136    31  24.10  26.00  12.90   6.091   6.091   0.000   6.091   0.108   0.000   0.108   0.657   0.000   0.657   0.000   0.000  188.62   23.66    0.00   23.66    0.00    0.00   0.438   0.130   0.044   0.017   0.007   0.005   0.012   0.004   0.000
 2020 137    32  22.90  24.30  12.70   5.331   5.331   0.000   5.331   0.167   0.000   0.167   0.892   0.000   0.892   0.000   0.000  193.95   24.55    0.00   24.55    0.00    0.00   0.674   0.129   0.044   0.017   0.007   0.005   0.012   0.004   0.000
 2020 138    33  27.60  25.40  10.10   6.688   6.688   0.000   6.688   0.157   0.000   0.157   1.053   0.000   1.053   0.000   0.000  200.64   25.60    0.00   25.60    0.00    0.00   0.836   0.128   0.043   0.017   0.007   0.005   0.012   0.004   0.000
 2020 139    34  26.90  28.00   7.00   7.195   7.195   0.000   7.195   0.135   0.000   0.135   0.969   0.000   0.969   0.000   0.000  207.83   26.57    0.00   26.57    0.00    0.00   0.753   0.127   0.043   0.017   0.007   0.005   0.012   0.004   0.000
 2020 140    35  23.70  28.80  11.00   7.074   7.074   0.000   7.074   0.126   0.000   0.126   0.893   0.000   0.893   0.000   0.000  214.91   27.46    0.00   27.46    0.00    0.00   0.678   0.126   0.043   0.017   0.007   0.005   0.012   0.004   0.000
 2020 141    36  20.80  26.00  11.30   6.413   6.413   0.000   6.413   0.129   0.000   0.129   0.824   0.000   0.824   0.000   0.000  221.32   28.29    0.00   28.29    0.00    0.00   0.610   0.126   0.043   0.017   0.007   0.005   0.012   0.004   0.000
 2020 142    37  16.10  27.40  12.20   6.044   6.044   0.000   6.044   0.250   0.000   0.250   1.510   0.000   1.510   0.000   0.000  227.36   29.80    0.00   29.80    0.00    0.00   1.241   0.181   0.044   0.017   0.007   0.005   0.012   0.004   0.000
 2020 143    38  28.00  24.80  10.50   6.794   6.794   0.000   6.794   0.819   0.000   0.819   5.564   0.000   5.564   0.000   0.000  234.16   35.36    0.00   35.36    0.00    0.00   0.196   0.392   0.332   0.333   0.264   0.292   1.862   1.893   0.000
 2020 144    39  22.50  33.10  12.10   8.914   8.914   0.000   8.914   0.234   0.000   0.234   2.083   0.000   2.083   0.000   0.000  243.07   37.45    0.00   37.45    0.00    0.00   1.761   0.233   0.044   0.017   0.007   0.005   0.011   0.004   0.000
 2020 145    40  23.60  26.80  12.80   7.376   7.376   0.000   7.376   0.258   0.000   0.258   1.906   0.000   1.906   0.000   0.000  250.45   39.35    0.00   39.35    0.00    0.00   1.585   0.231   0.044   0.017   0.007   0.005   0.011   0.004   0.000
 2020 146    41  15.70  19.40   8.60   4.660   4.660   0.000   4.660   0.377   0.000   0.377   1.756   0.000   1.756   0.000   0.000  255.11   41.11    0.00   41.11    0.00    0.00   1.437   0.230   0.044   0.017   0.007   0.005   0.011   0.004   0.000
 2020 147    42  23.60  25.60   6.20   6.128   6.128   0.000   6.128   0.265   0.000   0.265   1.621   0.000   1.621   0.000   0.000  261.24   42.73    0.00   42.73    0.00    0.00   1.304   0.228   0.044   0.017   0.007   0.005   0.011   0.004   0.000
 2020 148    43  15.40  24.30   8.90   5.062   5.062   0.000   5.062   1.000   0.000   1.000   5.062   0.000   5.062   0.000   0.000  266.30   47.79    0.00   47.79    0.00    0.00   0.157   0.365   0.337   0.301   0.239   0.264   1.685   1.713   0.000
 2020 149    44  26.90  27.60  10.10   7.598   7.598   0.000   7.598   1.000   0.000   1.000   7.598   0.000   7.598   0.000   0.000  273.90   55.39    0.00   55.39    0.00    0.00   1.919   1.446   0.873   0.480   0.312   0.300   1.333   0.935   0.000
 2020 150    45  27.90  31.00  12.40   8.836   8.836   0.000   8.836   0.222   0.000   0.222   1.964   0.000   1.964   0.000   0.000  282.73   57.35    0.00   57.35    0.00    0.00   1.633   0.231   0.057   0.016   0.007   0.005   0.011   0.004   0.000
 2020 151    46  27.80  35.20  16.20  11.955  11.955   0.000  11.955   0.151   0.000   0.151   1.800   0.000   1.800   0.000   0.000  294.69   59.15    0.00   59.15    0.00    0.00   1.470   0.230   0.057   0.016   0.007   0.005   0.011   0.004   0.000
 2020 152    47  28.10  34.30  17.70  11.905  11.905   0.000  11.905   0.139   0.000   0.139   1.651   0.000   1.651   0.000   0.000  306.59   60.80    0.00   60.80    0.00    0.00   1.323   0.228   0.057   0.016   0.007   0.005   0.011   0.004   0.000
 2020 153    48  27.10  34.80  17.00  11.840  11.840   0.000  11.840   0.128   0.000   0.128   1.518   0.000   1.518   0.000   0.000  318.43   62.32    0.00   62.32    0.00    0.00   1.191   0.226   0.056   0.016   0.007   0.005   0.011   0.004   0.000
 2020 154    49  27.80  37.00  16.70  10.084  10.084   0.000  10.084   0.139   0.000   0.139   1.397   0.000   1.397   0.000   0.000  328.52   63.72    0.00   63.72    0.00    0.00   1.072   0.225   0.056   0.016   0.007   0.005   0.011   0.004   0.000
 2020 155    50  27.90  35.40  17.80   9.237   9.237   0.000   9.237   0.140   0.000   0.140   1.289   0.000   1.289   0.000   0.000  337.75   65.01    0.00   65.01    0.00    0.00   0.965   0.224   0.056   0.016   0.007   0.005   0.011   0.004   0.000
 2020 156    51  21.60  36.50  16.10   8.225   8.225   0.000   8.225   0.146   0.000   0.146   1.201   0.000   1.201   0.000   0.000  345.98   66.21    0.00   66.21    0.00    0.00   0.879   0.222   0.056   0.016   0.007   0.005   0.011   0.004   0.000
 2020 157    52  28.00  38.60  17.70  10.112  10.112   0.032  10.080   0.114   0.003   0.111   1.154   0.032   1.122   0.000   0.000  356.09   67.36    0.03   67.33    0.00    0.00   0.801   0.221   0.056   0.016   0.007   0.005   0.011   0.004   0.003
 2020 158    53  25.40  36.90  19.30  10.623  10.623   0.071  10.552   0.163   0.007   0.156   1.731   0.071   1.661   0.000   0.000  366.71   69.09    0.10   68.99    0.00    0.00   1.327   0.233   0.058   0.016   0.007   0.005   0.011   0.004   0.007
 2020 159    54  27.50  35.60  22.30  12.059  12.059   0.122  11.931   0.470   0.010   0.460   5.673   0.122   5.551   0.000   0.000  378.77   74.77    0.23   74.54    0.00    0.00   0.196   0.396   0.455   0.319   0.254   0.282   1.807   1.842   0.012
 2020 160    55  28.90  38.60  19.80  12.207  12.207   0.179  12.021   0.465   0.015   0.450   5.674   0.179   5.495   0.000   0.000  390.98   80.44    0.40   80.04    0.00    0.00   0.193   0.391   0.456   0.315   0.252   0.279   1.787   1.822   0.018
 2020 161    56   5.50  25.60   9.00   5.580   5.580   0.166   5.404   0.998   0.030   0.968   5.570   0.166   5.404   0.000   0.000  396.56   86.01    0.57   85.44    0.00    0.00   1.358   1.029   0.722   0.325   0.212   0.204   0.913   0.642   0.017
 2020 162    57  29.50  27.10   8.30   6.714   6.714   0.250   6.456   0.857   0.037   0.820   5.753   0.250   5.503   0.000   0.000  403.27   91.76    0.82   90.94    0.00    0.00   0.196   0.397   0.530   0.308   0.247   0.273   1.757   1.795   0.025
 2020 163    58  28.70  33.60  15.00   9.357   9.357   0.438   8.904   0.629   0.047   0.582   5.885   0.438   5.447   0.000   0.000  412.63   97.65    1.26   96.39    0.00    0.00   0.192   0.391   0.531   0.305   0.244   0.270   1.738   1.775   0.044
 2020 164    59  28.10  35.40  16.50   9.184   9.184   0.588   8.580   0.288   0.064   0.224   2.641   0.588   2.053   0.000   0.000  421.81  100.29    1.85   98.44    0.00    0.00   1.710   0.231   0.070   0.015   0.007   0.005   0.011   0.004   0.059
 2020 165    60  28.80  37.70  13.20  11.487  11.487   0.964  10.490   0.246   0.084   0.162   2.823   0.964   1.860   0.000   0.000  433.30  103.11    2.81  100.30    0.00    0.00   1.521   0.228   0.070   0.015   0.007   0.005   0.011   0.004   0.096
 2020 166    61  20.90  35.90  19.60  12.443  12.443   1.306  11.083   0.239   0.105   0.135   2.980   1.306   1.674   0.000   0.000  445.74  106.09    4.11  101.98    0.00    0.00   1.340   0.223   0.069   0.015   0.007   0.005   0.011   0.004   0.131
 2020 167    62  27.90  35.90  18.60  12.474  12.474   1.620  10.784   0.562   0.130   0.432   7.014   1.620   5.394   0.000   0.000  458.22  113.11    5.73  107.37    0.00    0.00   0.171   0.392   0.548   0.301   0.241   0.267   1.719   1.755   0.162
 2020 168    63  27.90  34.40  19.00  11.313  11.313   1.782   9.453   0.636   0.157   0.478   7.194   1.782   5.412   0.000   0.000  469.53  120.30    7.52  112.79    0.00    0.00   0.199   0.397   0.574   0.304   0.238   0.264   1.700   1.736   0.178
 2020 169    64  26.50  36.50  20.60  12.497  12.497   2.383  10.002   0.358   0.191   0.167   4.470   2.383   2.087   0.000   0.000  482.03  124.77    9.90  114.87    0.00    0.00   1.739   0.231   0.076   0.016   0.006   0.005   0.010   0.004   0.238
 2020 170    65  27.80  30.80  19.20   9.443   9.443   2.170   7.180   0.425   0.230   0.195   4.014   2.170   1.844   0.000   0.000  491.47  128.79   12.07  116.72    0.00    0.00   1.506   0.222   0.075   0.016   0.006   0.005   0.010   0.004   0.217
 2020 171    66  14.50  24.70  13.80   4.118   4.118   1.096   2.986   0.668   0.266   0.402   2.752   1.096   1.656   0.000   0.000  495.59  131.54   13.17  118.37    0.00    0.00   1.328   0.214   0.073   0.016   0.006   0.005   0.010   0.004   0.110
 2020 172    67  26.20  32.50  14.80   7.106   7.106   2.063   4.991   0.504   0.290   0.214   3.581   2.063   1.517   0.000   0.000  502.69  135.12   15.23  119.89    0.00    0.00   1.194   0.210   0.073   0.016   0.006   0.005   0.010   0.004   0.206
 2020 173    68  19.10  34.70  15.10   7.445   7.445   2.413   4.963   0.504   0.324   0.180   3.754   2.413   1.341   0.000   0.000  510.14  138.87   17.64  121.23    0.00    0.00   1.026   0.202   0.072   0.016   0.006   0.005   0.010   0.004   0.241
 2020 174    69  26.20  31.20  13.60   6.798   6.798   2.463   4.273   0.618   0.362   0.256   4.201   2.463   1.737   0.000   0.000  516.94  143.07   20.11  122.97    0.00    0.00   1.408   0.217   0.071   0.016   0.006   0.005   0.010   0.004   0.246
 2020 175    70  24.70  30.80  13.50   6.167   6.167   2.452   3.664   0.992   0.398   0.594   6.116   2.452   3.664   0.000   0.000  523.10  149.19   22.56  126.63    0.00    0.00   0.135   0.264   0.366   0.211   0.162   0.180   1.160   1.185   0.245
 2020 176    71  27.40  36.20  17.40   9.162   9.162   3.903   5.146   0.648   0.426   0.222   5.937   3.903   2.034   0.000   0.000  532.27  155.13   26.46  128.67    0.00    0.00   1.703   0.221   0.069   0.016   0.006   0.005   0.010   0.004   0.390
 2020 177    72  26.00  37.10  17.80  10.893  10.893   5.089   5.609   0.629   0.467   0.162   6.852   5.089   1.762   0.000   0.000  543.16  161.98   31.55  130.43    0.00    0.00   1.446   0.209   0.067   0.016   0.006   0.005   0.010   0.004   0.509
 2020 178    73  27.60  36.80  18.20   8.176   8.176   4.263   3.826   0.703   0.521   0.182   5.751   4.263   1.488   0.000   0.000  551.33  167.73   35.81  131.92    0.00    0.00   1.190   0.192   0.065   0.016   0.006   0.005   0.010   0.004   0.426
 2020 179    74  25.70  36.70  17.70   8.501   8.501   4.802   3.584   0.714   0.565   0.149   6.066   4.802   1.265   0.000   0.000  559.84  173.79   40.61  133.18    0.00    0.00   0.983   0.179   0.062   0.016   0.006   0.005   0.010   0.004   0.480
 2020 180    75  26.80  37.40  18.00   8.790   8.790   5.291   3.361   0.728   0.602   0.126   6.398   5.291   1.108   0.000   0.000  568.63  180.19   45.90  134.29    0.00    0.00   0.844   0.164   0.059   0.015   0.006   0.005   0.010   0.004   0.529
 2020 181    76  28.00  39.80  20.80  10.791  10.791   6.913   3.655   0.790   0.641   0.149   8.522   6.913   1.609   0.000   0.000  579.42  188.72   52.82  135.90    0.00    0.00   1.343   0.171   0.055   0.015   0.006   0.005   0.010   0.004   0.691
 2020 182    77  28.10  37.20  16.20   9.518   9.518   6.533   2.822   0.983   0.686   0.297   9.356   6.533   2.822   0.000   0.000  588.93  198.07   59.35  138.72    0.00    0.00   0.110   0.160   0.212   0.170   0.128   0.145   0.938   0.959   0.653
 2020 183    78  26.00  33.30  17.50   7.923   7.923   5.667   2.092   0.946   0.715   0.231   7.494   5.667   1.827   0.000   0.000  596.86  205.57   65.02  140.55    0.00    0.00   1.591   0.147   0.049   0.015   0.006   0.005   0.010   0.004   0.567
 2020 184    79  22.60  37.30  18.10   8.141   8.141   6.054   1.924   0.927   0.744   0.183   7.543   6.054   1.489   0.000   0.000  605.00  213.11   71.07  142.04    0.00    0.00   1.276   0.126   0.048   0.015   0.006   0.005   0.010   0.004   0.605
 2020 185    80  24.90  35.10  15.00   7.367   7.367   5.699   1.541   0.731   0.588   0.143   5.386   4.333   1.053   0.000   0.000  612.37  218.49   75.41  143.09    0.00    0.00   0.851   0.116   0.046   0.015   0.006   0.005   0.010   0.004   0.433
 2020 186    81  25.70  33.90  15.60   6.792   6.792   5.323   1.371   0.549   0.414   0.136   3.731   2.809   0.923   0.000   0.000  619.16  222.23   78.21  144.01    0.00    0.00   0.730   0.109   0.045   0.015   0.006   0.004   0.010   0.004   0.281
 2020 187    82  14.80  30.60  18.00   4.274   4.274   3.361   0.862   0.687   0.489   0.198   2.935   2.091   0.844   0.000   0.000  623.43  225.16   80.30  144.86    0.00    0.00   0.657   0.105   0.043   0.015   0.005   0.004   0.010   0.004   0.209
 2020 188    83  26.40  33.30  15.00   6.303   6.303   4.976   1.256   0.377   0.254   0.123   2.379   1.604   0.775   0.000   0.000  629.74  227.54   81.91  145.63    0.00    0.00   0.592   0.102   0.042   0.015   0.005   0.004   0.010   0.004   0.160
 2020 189    84  27.40  34.40  18.40   7.887   7.887   6.095   1.625   0.267   0.176   0.090   2.103   1.390   0.713   0.000   0.000  637.62  229.64   83.30  146.34    0.00    0.00   0.533   0.100   0.042   0.015   0.005   0.004   0.010   0.004   0.139
 2020 190    85  27.90  38.70  19.80  10.053  10.053   7.660   2.164   0.187   0.121   0.065   1.877   1.220   0.657   0.000   0.000  647.68  231.52   84.52  147.00    0.00    0.00   0.480   0.098   0.041   0.015   0.005   0.004   0.010   0.004   0.122
 2020 191    86  25.60  32.80  21.40   7.135   7.135   5.365   1.617   0.235   0.150   0.085   1.674   1.067   0.607   0.000   0.000  654.81  233.19   85.59  147.61    0.00    0.00   0.432   0.096   0.041   0.015   0.005   0.004   0.010   0.004   0.107
 2020 192    87  16.60  32.30  21.40   5.639   5.639   4.205   1.336   0.274   0.174   0.100   1.543   0.981   0.562   0.000   0.000  660.45  234.74   86.57  148.17    0.00    0.00   0.389   0.095   0.040   0.015   0.005   0.004   0.010   0.004   0.098
 2020 193    88  27.20  35.70  17.30   7.617   7.617   5.622   1.873   0.171   0.103   0.068   1.302   0.781   0.521   0.000   0.000  668.07  236.04   87.35  148.69    0.00    0.00   0.350   0.094   0.040   0.015   0.005   0.004   0.010   0.004   0.078
 2020 194    89  23.40  34.20  18.20   6.628   6.628   4.841   1.682   0.180   0.106   0.073   1.190   0.705   0.485   0.000   0.000  674.70  237.23   88.05  149.17    0.00    0.00   0.315   0.093   0.039   0.015   0.005   0.004   0.010   0.004   0.071
 2020 195    90  26.10  32.90  17.50   7.511   7.511   5.370   1.991   0.146   0.086   0.060   1.096   0.644   0.452   0.000   0.000  682.21  238.32   88.70  149.63    0.00    0.00   0.284   0.092   0.039   0.015   0.005   0.004   0.010   0.004   0.064
 2020 196    91  18.90  31.80  20.10   5.662   5.662   3.976   1.577   0.203   0.107   0.097   1.151   0.603   0.548   0.000   0.000  687.87  239.47   89.30  150.17    0.00    0.00   0.380   0.092   0.039   0.015   0.005   0.004   0.010   0.004   0.060
 2020 197    92  19.90  28.60  18.50   4.773   4.773   3.308   1.391   0.250   0.117   0.133   1.194   0.560   0.633   0.000   0.000  692.64  240.67   89.86  150.81    0.00    0.00   0.467   0.091   0.038   0.015   0.005   0.004   0.010   0.004   0.056
 2020 198    93  24.40  32.20  18.50   6.246   6.246   4.255   1.899   0.181   0.088   0.094   1.133   0.547   0.586   0.000   0.000  698.89  241.80   90.41  151.39    0.00    0.00   0.420   0.091   0.038   0.015   0.005   0.004   0.010   0.004   0.055
 2020 199    94  23.10  35.60  20.40   7.448   7.448   4.954   2.370   0.160   0.056   0.104   1.191   0.419   0.772   0.000   0.000  706.34  242.99   90.83  152.16    0.00    0.00   0.608   0.090   0.038   0.015   0.005   0.004   0.010   0.004   0.042
 2020 200    95  20.40  35.90  21.20   6.353   6.353   4.158   2.122   0.308   0.081   0.227   1.957   0.516   1.441   0.000   0.000  712.69  244.95   91.34  153.61    0.00    0.00   1.277   0.090   0.038   0.015   0.005   0.003   0.010   0.004   0.052
 2020 201    96  20.90  29.60  18.90   5.583   5.583   3.554   1.946   0.961   0.637   0.325   5.365   3.554   1.812   0.000   0.000  718.27  250.32   94.90  155.42    0.00    0.00   1.648   0.090   0.038   0.015   0.004   0.003   0.010   0.004   0.355
 2020 202    97  26.50  31.00  18.00   6.514   6.514   4.235   2.168   0.767   0.564   0.203   4.997   3.673   1.324   0.000   0.000  724.79  255.31   98.57  156.74    0.00    0.00   1.161   0.089   0.038   0.015   0.004   0.003   0.010   0.004   0.367
 2020 203    98  27.00  29.80  15.60   6.052   6.052   4.068   1.902   0.223   0.079   0.143   1.348   0.480   0.868   0.000   0.000  730.84  256.66   99.05  157.61    0.00    0.00   0.705   0.089   0.038   0.015   0.004   0.003   0.010   0.004   0.048
 2020 204    99  26.70  33.30  18.40   7.159   7.159   4.683   2.359   0.187   0.076   0.111   1.338   0.541   0.797   0.000   0.000  738.00  258.00   99.59  158.41    0.00    0.00   0.635   0.088   0.038   0.015   0.004   0.003   0.010   0.004   0.054
 2020 205   100  24.20  33.50  20.00   7.101   7.101   4.527   2.448   0.187   0.084   0.103   1.327   0.595   0.733   0.000   0.000  745.10  259.33  100.19  159.14    0.00    0.00   0.571   0.087   0.038   0.015   0.004   0.003   0.010   0.004   0.059
 2020 206   101  26.10  34.70  20.80   7.666   7.666   4.785   2.754   0.170   0.082   0.088   1.301   0.626   0.675   0.000   0.000  752.76  260.63  100.81  159.81    0.00    0.00   0.514   0.087   0.038   0.015   0.004   0.003   0.010   0.004   0.063
 2020 207   102  26.10  35.40  21.00   7.810   7.810   4.778   2.918   0.164   0.084   0.080   1.281   0.658   0.623   0.000   0.000  760.57  261.91  101.47  160.44    0.00    0.00   0.463   0.086   0.037   0.015   0.004   0.003   0.010   0.004   0.066
 2020 208   103  20.20  35.80  19.40   6.195   6.195   3.723   2.402   0.340   0.111   0.229   2.109   0.690   1.419   0.000   0.000  766.77  264.02  102.16  161.86    0.00    0.00   1.175   0.168   0.040   0.014   0.004   0.003   0.010   0.004   0.069
 2020 209   104  12.60  26.40  20.00   2.917   2.917   1.726   1.168   0.992   0.592   0.400   2.893   1.726   1.168   0.000   0.000  769.69  266.91  103.89  163.02    0.00    0.00   0.327   0.247   0.117   0.070   0.032   0.032   0.199   0.144   0.173
 2020 210   105  12.00  25.50  19.70   2.739   2.739   1.644   1.071   0.991   0.600   0.391   2.715   1.644   1.071   0.000   0.000  772.43  269.62  105.53  164.09    0.00    0.00   0.043   0.086   0.077   0.062   0.035   0.039   0.356   0.373   0.164
 2020 211   106  22.90  32.00  18.50   5.161   5.161   3.108   2.018   0.993   0.602   0.391   5.127   3.108   2.018   0.000   0.000  777.59  274.75  108.64  166.11    0.00    0.00   0.562   0.414   0.218   0.121   0.055   0.055   0.344   0.249   0.311
 2020 212   107  20.50  25.90  16.00   4.373   4.373   2.603   1.710   0.986   0.595   0.391   4.313   2.603   1.710   0.000   0.000  781.96  279.06  111.24  167.82    0.00    0.00   0.069   0.134   0.129   0.099   0.055   0.063   0.566   0.595   0.260
 2020 213   108  25.70  28.90  14.00   5.147   5.147   3.098   2.013   0.990   0.602   0.388   5.095   3.098   1.997   0.000   0.000  787.11  284.16  114.34  169.82    0.00    0.00   1.695   0.218   0.048   0.014   0.004   0.003   0.010   0.004   0.310
 2020 214   109  25.80  31.00  13.40   5.323   5.323   3.209   2.082   0.926   0.603   0.324   4.931   3.209   1.722   0.000   0.000  792.43  289.09  117.55  171.54    0.00    0.00   1.434   0.205   0.048   0.014   0.004   0.003   0.010   0.004   0.321
 2020 215   110  21.40  27.30  15.80   4.558   4.558   2.731   1.783   0.922   0.599   0.322   4.200   2.731   1.470   0.000   0.000  796.99  293.29  120.28  173.01    0.00    0.00   1.196   0.191   0.047   0.014   0.004   0.003   0.010   0.004   0.273
 2020 216   111  20.60  25.60  14.80   4.215   4.215   2.524   1.649   0.990   0.599   0.391   4.172   2.524   1.649   0.000   0.000  801.20  297.46  122.80  174.66    0.00    0.00   1.387   0.180   0.047   0.014   0.004   0.003   0.010   0.004   0.252
 2020 217   112  21.60  28.00  15.70   5.334   5.334   3.157   2.086   0.960   0.592   0.368   5.118   3.157   1.961   0.000   0.000  806.54  302.58  125.96  176.62    0.00    0.00   1.710   0.169   0.046   0.014   0.004   0.003   0.010   0.004   0.316
 2020 218   113  24.30  29.00  14.00   5.336   5.336   3.192   2.087   0.934   0.598   0.336   4.982   3.192   1.791   0.000   0.000  811.87  307.56  129.15  178.41    0.00    0.00   1.551   0.158   0.046   0.014   0.004   0.003   0.010   0.004   0.319
 2020 219   114  17.00  28.20  18.90   4.259   4.259   2.531   1.666   0.985   0.594   0.391   4.197   2.531   1.666   0.000   0.000  816.13  311.76  131.68  180.08    0.00    0.00   1.447   0.146   0.041   0.013   0.004   0.003   0.009   0.003   0.253
 2020 220   115  24.70  31.80  20.00   5.441   5.441   3.272   2.128   0.962   0.601   0.361   5.234   3.272   1.963   0.000   0.000  821.57  316.99  134.95  182.04    0.00    0.00   1.711   0.172   0.046   0.014   0.004   0.003   0.010   0.004   0.327
 2020 221   116  24.60  34.80  15.40   6.358   6.358   3.810   2.486   0.863   0.599   0.264   5.488   3.810   1.678   0.000   0.000  827.93  322.48  138.76  183.72    0.00    0.00   1.440   0.157   0.045   0.014   0.004   0.003   0.010   0.004   0.381
 2020 222   117  24.10  35.20  18.90   7.366   7.366   4.399   2.881   0.787   0.597   0.190   5.799   4.399   1.400   0.000   0.000  835.30  328.28  143.16  185.12    0.00    0.00   1.180   0.141   0.045   0.014   0.004   0.003   0.010   0.004   0.440
 2020 223   118  21.50  33.00  16.90   5.555   5.555   3.330   2.173   0.802   0.599   0.203   4.458   3.330   1.128   0.000   0.000  840.85  332.74  146.49  186.25    0.00    0.00   0.927   0.122   0.045   0.014   0.004   0.003   0.010   0.004   0.333
 2020 224   119  23.90  32.10  14.00   6.093   6.093   3.636   2.383   0.464   0.309   0.155   2.827   1.883   0.944   0.000   0.000  846.94  335.57  148.38  187.19    0.00    0.00   0.754   0.112   0.044   0.014   0.004   0.003   0.010   0.004   0.188
 2020 225   120  20.60  30.80  18.00   5.231   5.231   3.080   2.090   0.452   0.287   0.165   2.365   1.501   0.863   0.000   0.000  852.18  337.93  149.88  188.05    0.00    0.00   0.679   0.107   0.043   0.014   0.004   0.003   0.010   0.004   0.150
 2020 226   121  22.50  32.50  20.40   5.150   5.150   3.007   2.107   0.408   0.254   0.154   2.100   1.309   0.791   0.000   0.000  857.33  340.03  151.19  188.85    0.00    0.00   0.611   0.103   0.042   0.014   0.004   0.003   0.010   0.004   0.131
 2020 227   122  18.80  32.70  17.80   4.736   4.736   2.714   1.987   0.404   0.251   0.154   1.914   1.187   0.727   0.000   0.000  862.06  341.95  152.37  189.57    0.00    0.00   0.550   0.101   0.041   0.014   0.004   0.003   0.010   0.004   0.119
 2020 228   123  20.50  31.00  19.30   4.836   4.836   2.714   2.079   0.366   0.228   0.139   1.770   1.100   0.670   0.000   0.000  866.90  343.72  153.47  190.24    0.00    0.00   0.495   0.099   0.041   0.014   0.004   0.003   0.010   0.004   0.110
 2020 229   124  21.50  31.40  18.90   5.491   5.491   3.007   2.421   0.327   0.189   0.138   1.793   1.036   0.758   0.000   0.000  872.39  345.51  154.51  191.00    0.00    0.00   0.586   0.097   0.040   0.014   0.004   0.003   0.010   0.004   0.104
 2020 230   125  25.00  32.50  14.00   5.639   5.639   3.045   2.553   0.439   0.175   0.264   2.476   0.985   1.491   0.000   0.000  878.03  347.99  155.49  192.49    0.00    0.00   1.299   0.117   0.040   0.014   0.004   0.003   0.010   0.004   0.099
 2020 231   126  23.60  32.80  15.00   6.011   6.011   3.157   2.796   0.990   0.525   0.465   5.953   3.157   2.796   0.000   0.000  884.04  353.94  158.65  195.29    0.00    0.00   0.121   0.141   0.182   0.170   0.092   0.105   0.950   1.035   0.316
 2020 232   127  18.70  31.40  17.70   5.406   5.406   2.831   2.514   0.864   0.524   0.341   4.672   2.831   1.841   0.000   0.000  889.44  358.61  161.48  197.13    0.00    0.00   1.642   0.125   0.039   0.014   0.004   0.003   0.009   0.004   0.283
 2020 233   128  22.80  31.50  15.20   5.696   5.696   2.988   2.649   0.787   0.525   0.262   4.481   2.988   1.492   0.000   0.000  895.14  363.09  164.47  198.62    0.00    0.00   1.300   0.119   0.039   0.014   0.004   0.003   0.009   0.004   0.299
 2020 234   129  20.10  31.40  17.30   5.270   5.270   2.772   2.451   0.742   0.526   0.216   3.913   2.772   1.141   0.000   0.000  900.41  367.00  167.24  199.76    0.00    0.00   0.953   0.115   0.039   0.014   0.004   0.003   0.009   0.004   0.277
 2020 235   130  21.20  33.80  15.50   5.652   5.652   2.975   2.629   0.386   0.225   0.161   2.183   1.272   0.911   0.000   0.000  906.06  369.19  168.52  200.67    0.00    0.00   0.729   0.109   0.039   0.014   0.004   0.003   0.009   0.004   0.127
 2020 236   131  21.10  34.40  17.50   6.131   6.131   3.160   2.912   0.315   0.179   0.136   1.929   1.095   0.834   0.000   0.000  912.19  371.12  169.61  201.51    0.00    0.00   0.657   0.105   0.038   0.014   0.004   0.003   0.009   0.004   0.109
 2020 237   132  22.50  35.10  16.40   6.964   6.964   3.501   3.390   0.340   0.131   0.209   2.366   0.912   1.455   0.000   0.000  919.16  373.48  170.52  202.96    0.00    0.00   1.262   0.121   0.038   0.014   0.004   0.003   0.009   0.004   0.091
 2020 238   133  21.80  33.60  18.90   7.160   7.160   3.502   3.576   0.989   0.489   0.499   7.078   3.502   3.576   0.000   0.000  926.32  380.56  174.02  206.54    0.00    0.00   0.157   0.184   0.227   0.219   0.117   0.133   1.202   1.336   0.350
 2020 239   134  22.40  34.80  13.50   6.874   6.874   3.369   3.433   0.756   0.490   0.266   5.195   3.369   1.826   0.000   0.000  933.19  385.76  177.39  208.36    0.00    0.00   1.631   0.124   0.038   0.014   0.004   0.003   0.009   0.004   0.337
 2020 240   135  22.20  35.50  16.60   6.218   6.218   3.061   3.105   0.722   0.492   0.230   4.492   3.061   1.431   0.000   0.000  939.41  390.25  180.45  209.79    0.00    0.00   1.243   0.117   0.038   0.014   0.004   0.003   0.009   0.004   0.306
 2020 241   136  22.00  35.50  17.20   6.286   6.286   3.087   3.139   0.571   0.306   0.265   3.589   1.922   1.667   0.000   0.000  945.69  393.84  182.38  211.46    0.00    0.00   1.407   0.184   0.043   0.014   0.004   0.003   0.009   0.004   0.192
 2020 242   137  11.50  24.60  17.20   2.622   2.622   1.276   1.327   0.993   0.487   0.506   2.603   1.276   1.327   0.000   0.000  948.32  396.44  183.65  212.79    0.00    0.00   0.375   0.286   0.150   0.077   0.034   0.033   0.209   0.162   0.128
 2020 243   138  19.90  33.30  16.00   4.758   4.758   2.324   2.408   0.994   0.488   0.506   4.731   2.324   2.408   0.000   0.000  953.07  401.17  185.98  215.20    0.00    0.00   0.102   0.202   0.200   0.139   0.074   0.084   0.757   0.849   0.232
 2020 244   139  22.40  24.60  14.00   4.408   4.408   2.127   2.231   0.988   0.482   0.506   4.357   2.127   2.231   0.000   0.000  957.48  405.53  188.10  217.43    0.00    0.00   0.618   0.462   0.305   0.127   0.056   0.055   0.343   0.265   0.213
 2020 245   140  13.90  25.80  15.20   3.150   3.150   1.534   1.594   0.992   0.486   0.506   3.126   1.532   1.594   0.000   0.000  960.63  408.66  189.63  219.02    0.00    0.00   0.066   0.132   0.175   0.089   0.048   0.054   0.486   0.545   0.153
 2020 246   141  22.80  31.00  13.90   4.633   4.633   2.265   2.344   0.940   0.489   0.451   4.352   2.265   2.087   0.000   0.000  965.27  413.01  191.90  221.11    0.00    0.00   1.751   0.233   0.070   0.014   0.004   0.003   0.009   0.004   0.227
 2020 247   142  22.90  26.30  13.20   4.610   4.610   2.228   2.333   0.888   0.483   0.405   4.094   2.228   1.866   0.000   0.000  969.88  417.10  194.13  222.97    0.00    0.00   1.538   0.227   0.068   0.014   0.004   0.003   0.009   0.004   0.223
 2020 248   143  22.30  31.60   8.20   4.673   4.673   2.282   2.364   0.845   0.488   0.357   3.948   2.282   1.666   0.000   0.000  974.55  421.05  196.41  224.64    0.00    0.00   1.347   0.220   0.067   0.014   0.004   0.003   0.009   0.004   0.228
 2020 249   144  21.30  34.00  15.50   5.807   5.807   2.816   2.938   0.741   0.485   0.256   4.301   2.816   1.485   0.000   0.000  980.36  425.35  199.23  226.13    0.00    0.00   1.174   0.213   0.065   0.014   0.004   0.003   0.009   0.004   0.282
 2020 250   145  19.40  36.00  19.60   6.279   6.279   3.049   3.177   0.694   0.486   0.209   4.360   3.049   1.310   0.000   0.000  986.63  429.71  202.27  227.44    0.00    0.00   1.009   0.206   0.063   0.014   0.004   0.003   0.009   0.004   0.305
 2020 251   146  19.30  34.00  14.00   5.459   5.459   2.652   2.762   0.801   0.486   0.315   4.371   2.652   1.719   0.000   0.000  992.09  434.08  204.93  229.15    0.00    0.00   1.405   0.219   0.062   0.014   0.004   0.003   0.009   0.004   0.265
 2020 252   147   3.30  16.00   2.80   2.769   2.769   1.300   1.401   0.976   0.470   0.506   2.701   1.300   1.401   0.000   0.000  994.86  436.78  206.23  230.56    0.00    0.00   0.390   0.291   0.198   0.078   0.034   0.034   0.211   0.164   0.130
 2020 253   148   3.70   5.20   1.70   0.840   0.840   0.367   0.456   0.980   0.437   0.543   0.822   0.367   0.456   0.000   0.000  995.70  437.61  206.59  231.01    0.00    0.00   0.124   0.094   0.072   0.028   0.011   0.010   0.066   0.051   0.037
 2020 254   149   9.20  12.90   4.70   1.674   1.674   0.643   1.017   0.992   0.384   0.607   1.660   0.643   1.017   0.000   0.000  997.38  439.27  207.24  232.03    0.00    0.00   0.269   0.201   0.171   0.073   0.023   0.023   0.144   0.112   0.064
 2020 255   150  20.10  22.00   8.90   3.321   3.321   1.269   2.035   0.995   0.382   0.613   3.303   1.269   2.035   0.000   0.000   1001.    443.    209.    234.      0.      0.   0.081   0.162   0.241   0.162   0.058   0.066   0.594   0.670   0.127
 2020 256   151  21.50  28.60   8.80   4.266   4.266   1.630   2.614   0.877   0.382   0.495   3.741   1.630   2.111   0.000   0.000   1005.    446.    210.    236.      0.      0.   1.761   0.233   0.077   0.021   0.004   0.003   0.009   0.004   0.163
 2020 257   152  21.50  29.00   5.90   3.631   3.631   1.397   2.224   0.909   0.385   0.524   3.300   1.397   1.903   0.000   0.000   1009.    450.    212.    238.      0.      0.   1.560   0.228   0.076   0.021   0.004   0.003   0.009   0.004   0.140
 2020 258   153  18.50  27.30   7.90   3.466   3.466   1.329   2.124   0.880   0.384   0.496   3.050   1.329   1.720   0.000   0.000   1012.    453.    213.    240.      0.      0.   1.382   0.224   0.075   0.020   0.004   0.003   0.009   0.004   0.133
 2020 259   154  19.30  28.20   8.60   4.035   4.035   1.540   2.472   0.994   0.382   0.613   4.013   1.540   2.472   0.000   0.000   1016.    457.    214.    242.      0.      0.   0.088   0.198   0.290   0.208   0.071   0.080   0.723   0.815   0.154
 2020 260   155  18.60  27.70   7.40   3.668   3.668   1.404   2.247   0.995   0.383   0.613   3.651   1.404   2.247   0.000   0.000   1020.    460.    216.    245.      0.      0.   0.580   0.438   0.367   0.197   0.051   0.050   0.317   0.247   0.140
 2020 261   156  18.10  26.90   8.10   3.437   3.437   1.317   2.106   0.996   0.383   0.613   3.423   1.317   2.106   0.000   0.000   1023.    464.    217.    247.      0.      0.   0.082   0.166   0.244   0.192   0.060   0.067   0.608   0.686   0.132
 2020 262   157  16.80  27.70   9.00   4.234   4.234   1.606   2.594   0.866   0.379   0.486   3.666   1.606   2.060   0.000   0.000   1027.    467.    219.    249.      0.      0.   1.712   0.231   0.075   0.023   0.004   0.003   0.009   0.003   0.161
 2020 263   158  17.20  28.20   9.60   5.345   5.345   2.008   3.275   0.724   0.376   0.348   3.868   2.008   1.860   0.000   0.000   1033.    471.    221.    251.      0.      0.   1.518   0.226   0.074   0.023   0.004   0.003   0.009   0.003   0.201
 2020 264   159  18.20  30.30  14.60   6.118   6.118   2.297   3.748   0.649   0.375   0.273   3.970   2.297   1.673   0.000   0.000   1039.    475.    223.    252.      0.      0.   1.338   0.221   0.073   0.023   0.004   0.003   0.009   0.003   0.230
 2020 265   160  18.20  29.10  10.80   4.915   4.915   1.860   3.011   0.991   0.378   0.613   4.871   1.860   3.011   0.000   0.000   1044.    480.    225.    255.      0.      0.   0.106   0.241   0.346   0.272   0.086   0.097   0.875   0.989   0.186
 2020 266   161  18.70  28.80   9.70   4.423   4.423   1.680   2.710   0.992   0.380   0.613   4.390   1.680   2.710   0.000   0.000   1048.    485.    227.    258.      0.      0.   0.702   0.530   0.440   0.244   0.061   0.060   0.378   0.295   0.168
 2020 267   162  17.40  29.20  13.00   3.997   3.997   1.523   2.449   0.899   0.381   0.518   3.595   1.523   2.072   0.000   0.000   1052.    488.    228.    260.      0.      0.   1.721   0.233   0.076   0.023   0.004   0.003   0.009   0.003   0.152
 2020 268   163  18.50  34.60  10.60   4.123   4.123   1.582   2.526   0.838   0.384   0.454   3.454   1.582   1.873   0.000   0.000   1056.    492.    230.    262.      0.      0.   1.528   0.228   0.075   0.023   0.004   0.003   0.009   0.003   0.158
 2020 269   164  18.70  36.80  10.50   5.207   5.207   1.989   3.190   0.707   0.382   0.325   3.681   1.989   1.692   0.000   0.000   1062.    495.    232.    264.      0.      0.   1.353   0.224   0.074   0.023   0.004   0.003   0.009   0.003   0.199
 2020 270   165  16.50  34.10  11.30   4.257   4.257   1.630   2.608   0.740   0.383   0.357   3.152   1.630   1.522   0.000   0.000   1066.    498.    233.    265.      0.      0.   1.189   0.219   0.072   0.023   0.004   0.003   0.009   0.003   0.163
 2020 271   166  15.80  21.70  12.50   5.134   5.134   1.916   3.145   0.641   0.373   0.268   3.290   1.916   1.374   0.000   0.000   1071.    502.    235.    266.      0.      0.   1.047   0.214   0.071   0.023   0.004   0.003   0.009   0.003   0.192
 2020 272   167  19.00  20.10   3.50   4.245   4.245   1.594   2.601   0.667   0.375   0.291   2.831   1.594   1.237   0.000   0.000   1075.    505.    237.    268.      0.      0.   0.917   0.209   0.070   0.022   0.004   0.003   0.009   0.003   0.159
 2020 273   168  18.60  29.00   3.10   4.301   4.301   1.637   2.635   0.645   0.381   0.264   2.773   1.637   1.136   0.000   0.000   1080.    507.    238.    269.      0.      0.   0.822   0.204   0.069   0.022   0.004   0.003   0.009   0.003   0.164
 2020 274   169  17.60  26.20   6.00   4.174   4.174   1.583   2.557   0.629   0.378   0.251   2.626   1.580   1.046   0.000   0.000   1084.    510.    240.    270.      0.      0.   0.739   0.199   0.068   0.022   0.004   0.003   0.009   0.003   0.158
 2020 275   170  17.70  20.40   2.80   3.073   3.073   1.169   1.883   0.695   0.381   0.314   2.136   1.169   0.967   0.000   0.000   1087.    512.    241.    271.      0.      0.   0.665   0.194   0.066   0.022   0.004   0.003   0.009   0.003   0.117
 2020 276   171  17.10  26.80   2.50   3.497   3.497   1.335   2.143   0.638   0.382   0.256   2.230   1.335   0.895   0.000   0.000   1090.    514.    243.    272.      0.      0.   0.599   0.191   0.066   0.022   0.004   0.003   0.009   0.003   0.133
 2020 277   172  15.50  22.00   4.00   3.711   3.711   1.401   2.274   0.601   0.378   0.224   2.231   1.401   0.830   0.000   0.000   1094.    517.    244.    273.      0.      0.   0.539   0.186   0.065   0.022   0.004   0.003   0.009   0.003   0.140

*DSSAT Cropping System Model Ver. 4.7.5.035 -develop  JUN 14, 2021 14:17:00

*RUN   2        : 20 IRRIG, PETPEN KCB..... MZCER047 KSRT2001    2
 MODEL          : MZCER047 - Maize
 EXPERIMENT     : KSRT2001 SB ARM 2020 KS, IRRIGATED
 DATA PATH      :
 TREATMENT  2   : 20 IRRIG, PETPEN KCB..... MZCER047
  
!                                                                                                                                                                                        Soil evaporation (mm/d) by soil depth (cm):
!                                                                                                                                                                                        0-5    5-15   15-29   29-43   43-53   53-64  64-132 132-201
@YEAR DOY   DAS   SRAA  TMAXA  TMINA    REFA    EOAA    EOPA    EOSA    KCAA    KCBA    KEAA    ETAA    EPAA    ESAA    EFAA    EMAA    EOAC    ETAC    EPAC    ESAC    EFAC    EMAC    ES1D    ES2D    ES3D    ES4D    ES5D    ES6D    ES7D    ES8D   TRWUD
 2020 106     1  24.00  17.90  -7.20   4.818   0.000   0.000   0.000   0.000   0.000   0.000   0.000   0.000   0.000   0.000   0.000    0.00    0.00    0.00    0.00    0.00    0.00   0.000   0.000   0.000   0.000   0.000   0.000   0.000   0.000   0.000
 2020 107     2  23.60  16.50  -2.00   5.199   0.000   0.000   0.000   0.000   0.000   0.000   0.000   0.000   0.000   0.000   0.000    0.00    0.00    0.00    0.00    0.00    0.00   0.000   0.000   0.000   0.000   0.000   0.000   0.000   0.000   0.000
 2020 108     3  23.70  13.80  -2.00   4.020   0.000   0.000   0.000   0.000   0.000   0.000   0.000   0.000   0.000   0.000   0.000    0.00    0.00    0.00    0.00    0.00    0.00   0.000   0.000   0.000   0.000   0.000   0.000   0.000   0.000   0.000
 2020 109     4  19.70  23.60  -1.10   6.544   0.000   0.000   0.000   0.000   0.000   0.000   0.000   0.000   0.000   0.000   0.000    0.00    0.00    0.00    0.00    0.00    0.00   0.000   0.000   0.000   0.000   0.000   0.000   0.000   0.000   0.000
 2020 110     5  23.20  21.80   1.30   5.594   0.000   0.000   0.000   0.000   0.000   0.000   0.000   0.000   0.000   0.000   0.000    0.00    0.00    0.00    0.00    0.00    0.00   0.000   0.000   0.000   0.000   0.000   0.000   0.000   0.000   0.000
 2020 111     6  24.00  23.50   1.70   5.622   0.000   0.000   0.000   0.000   0.000   0.000   0.000   0.000   0.000   0.000   0.000    0.00    0.00    0.00    0.00    0.00    0.00   0.000   0.000   0.000   0.000   0.000   0.000   0.000   0.000   0.000
 2020 112     7  12.80  19.40   2.50   3.706   0.000   0.000   0.000   0.000   0.000   0.000   0.000   0.000   0.000   0.000   0.000    0.00    0.00    0.00    0.00    0.00    0.00   0.000   0.000   0.000   0.000   0.000   0.000   0.000   0.000   0.000
 2020 113     8  15.20  22.00   5.00   4.309   0.000   0.000   0.000   0.000   0.000   0.000   0.000   0.000   0.000   0.000   0.000    0.00    0.00    0.00    0.00    0.00    0.00   0.000   0.000   0.000   0.000   0.000   0.000   0.000   0.000   0.000
 2020 114     9  22.00  27.10   3.50   6.343   0.000   0.000   0.000   0.000   0.000   0.000   0.000   0.000   0.000   0.000   0.000    0.00    0.00    0.00    0.00    0.00    0.00   0.000   0.000   0.000   0.000   0.000   0.000   0.000   0.000   0.000
 2020 115    10  16.50  17.60   4.30   4.888   0.000   0.000   0.000   0.000   0.000   0.000   0.000   0.000   0.000   0.000   0.000    0.00    0.00    0.00    0.00    0.00    0.00   0.000   0.000   0.000   0.000   0.000   0.000   0.000   0.000   0.000
 2020 116    11  22.50  20.50   1.40   5.300   0.000   0.000   0.000   0.000   0.000   0.000   0.000   0.000   0.000   0.000   0.000    0.00    0.00    0.00    0.00    0.00    0.00   0.000   0.000   0.000   0.000   0.000   0.000   0.000   0.000   0.000
 2020 117    12  22.90  28.10   2.90   7.854   0.000   0.000   0.000   0.000   0.000   0.000   0.000   0.000   0.000   0.000   0.000    0.00    0.00    0.00    0.00    0.00    0.00   0.000   0.000   0.000   0.000   0.000   0.000   0.000   0.000   0.000
 2020 118    13  26.30  29.70   5.00   7.529   0.000   0.000   0.000   0.000   0.000   0.000   0.000   0.000   0.000   0.000   0.000    0.00    0.00    0.00    0.00    0.00    0.00   0.000   0.000   0.000   0.000   0.000   0.000   0.000   0.000   0.000
 2020 119    14  25.10  28.00   6.70   8.243   0.000   0.000   0.000   0.000   0.000   0.000   0.000   0.000   0.000   0.000   0.000    0.00    0.00    0.00    0.00    0.00    0.00   0.000   0.000   0.000   0.000   0.000   0.000   0.000   0.000   0.000
 2020 120    15  27.50  23.70   4.70   8.160   0.000   0.000   0.000   0.000   0.000   0.000   0.000   0.000   0.000   0.000   0.000    0.00    0.00    0.00    0.00    0.00    0.00   0.000   0.000   0.000   0.000   0.000   0.000   0.000   0.000   0.000
 2020 121    16  22.60  32.60   1.20   9.729   0.000   0.000   0.000   0.000   0.000   0.000   0.000   0.000   0.000   0.000   0.000    0.00    0.00    0.00    0.00    0.00    0.00   0.000   0.000   0.000   0.000   0.000   0.000   0.000   0.000   0.000
 2020 122    17  24.70  34.00  10.00   9.294   0.000   0.000   0.000   0.000   0.000   0.000   0.000   0.000   0.000   0.000   0.000    0.00    0.00    0.00    0.00    0.00    0.00   0.000   0.000   0.000   0.000   0.000   0.000   0.000   0.000   0.000
 2020 123    18  25.90  25.50  12.00   7.783   0.000   0.000   0.000   0.000   0.000   0.000   0.000   0.000   0.000   0.000   0.000    0.00    0.00    0.00    0.00    0.00    0.00   0.000   0.000   0.000   0.000   0.000   0.000   0.000   0.000   0.000
 2020 124    19  26.40  26.80   6.30   7.651   0.000   0.000   0.000   0.000   0.000   0.000   0.000   0.000   0.000   0.000   0.000    0.00    0.00    0.00    0.00    0.00    0.00   0.000   0.000   0.000   0.000   0.000   0.000   0.000   0.000   0.000
 2020 125    20  20.10  26.60  11.90   6.480   0.000   0.000   0.000   0.000   0.000   0.000   0.000   0.000   0.000   0.000   0.000    0.00    0.00    0.00    0.00    0.00    0.00   0.000   0.000   0.000   0.000   0.000   0.000   0.000   0.000   0.000
 2020 126    21  27.90  25.00   6.50   6.936   0.000   0.000   0.000   0.000   0.000   0.000   0.000   0.000   0.000   0.000   0.000    0.00    0.00    0.00    0.00    0.00    0.00   0.000   0.000   0.000   0.000   0.000   0.000   0.000   0.000   0.000
 2020 127    22  26.50  22.40   5.80   6.833   0.000   0.000   0.000   0.000   0.000   0.000   0.000   0.000   0.000   0.000   0.000    0.00    0.00    0.00    0.00    0.00    0.00   0.000   0.000   0.000   0.000   0.000   0.000   0.000   0.000   0.000
 2020 128    23  26.20  27.50   8.60   9.088   0.000   0.000   0.000   0.000   0.000   0.000   0.000   0.000   0.000   0.000   0.000    0.00    0.00    0.00    0.00    0.00    0.00   0.000   0.000   0.000   0.000   0.000   0.000   0.000   0.000   0.000
 2020 129    24  27.40  17.10   4.50   5.823   0.000   0.000   0.000   0.000   0.000   0.000   0.000   0.000   0.000   0.000   0.000    0.00    0.00    0.00    0.00    0.00    0.00   0.000   0.000   0.000   0.000   0.000   0.000   0.000   0.000   0.000
 2020 130    25  27.20  22.10   3.50   7.415   0.000   0.000   0.000   0.000   0.000   0.000   0.000   0.000   0.000   0.000   0.000    0.00    0.00    0.00    0.00    0.00    0.00   0.000   0.000   0.000   0.000   0.000   0.000   0.000   0.000   0.000
 2020 131    26  27.10  18.30   4.10   6.275   0.000   0.000   0.000   0.000   0.000   0.000   0.000   0.000   0.000   0.000   0.000    0.00    0.00    0.00    0.00    0.00    0.00   0.000   0.000   0.000   0.000   0.000   0.000   0.000   0.000   0.000
 2020 132    27   3.30   8.90   2.80   1.368   0.000   0.000   0.000   0.000   0.000   0.000   0.000   0.000   0.000   0.000   0.000    0.00    0.00    0.00    0.00    0.00    0.00   0.000   0.000   0.000   0.000   0.000   0.000   0.000   0.000   0.000
 2020 133    28   5.40   8.20   2.60   1.364   0.000   0.000   0.000   0.000   0.000   0.000   0.000   0.000   0.000   0.000   0.000    0.00    0.00    0.00    0.00    0.00    0.00   0.000   0.000   0.000   0.000   0.000   0.000   0.000   0.000   0.000
 2020 134    29  17.80  22.10   6.70   5.278   0.000   0.000   0.000   0.000   0.000   0.000   0.000   0.000   0.000   0.000   0.000    0.00    0.00    0.00    0.00    0.00    0.00   0.000   0.000   0.000   0.000   0.000   0.000   0.000   0.000   0.000
 2020 135    30  20.60  26.70   9.30   6.426   0.000   0.000   0.000   0.000   0.000   0.000   0.000   0.000   0.000   0.000   0.000    0.00    0.00    0.00    0.00    0.00    0.00   0.000   0.000   0.000   0.000   0.000   0.000   0.000   0.000   0.000
 2020 136    31  24.10  26.00  12.90   6.290   0.000   0.000   0.000   0.000   0.000   0.000   0.000   0.000   0.000   0.000   0.000    0.00    0.00    0.00    0.00    0.00    0.00   0.000   0.000   0.000   0.000   0.000   0.000   0.000   0.000   0.000
 2020 137    32  22.90  24.30  12.70   5.522   0.000   0.000   0.000   0.000   0.000   0.000   0.000   0.000   0.000   0.000   0.000    0.00    0.00    0.00    0.00    0.00    0.00   0.000   0.000   0.000   0.000   0.000   0.000   0.000   0.000   0.000
 2020 138    33  27.60  25.40  10.10   6.878   0.000   0.000   0.000   0.000   0.000   0.000   0.000   0.000   0.000   0.000   0.000    0.00    0.00    0.00    0.00    0.00    0.00   0.000   0.000   0.000   0.000   0.000   0.000   0.000   0.000   0.000
 2020 139    34  26.90  28.00   7.00   7.381   0.000   0.000   0.000   0.000   0.000   0.000   0.000   0.000   0.000   0.000   0.000    0.00    0.00    0.00    0.00    0.00    0.00   0.000   0.000   0.000   0.000   0.000   0.000   0.000   0.000   0.000
 2020 140    35  23.70  28.80  11.00   7.242   0.000   0.000   0.000   0.000   0.000   0.000   0.000   0.000   0.000   0.000   0.000    0.00    0.00    0.00    0.00    0.00    0.00   0.000   0.000   0.000   0.000   0.000   0.000   0.000   0.000   0.000
 2020 141    36  20.80  26.00  11.30   6.536   0.000   0.000   0.000   0.000   0.000   0.000   0.000   0.000   0.000   0.000   0.000    0.00    0.00    0.00    0.00    0.00    0.00   0.000   0.000   0.000   0.000   0.000   0.000   0.000   0.000   0.000
 2020 142    37  16.10  27.40  12.20   6.155   0.000   0.000   0.000   0.000   0.000   0.000   0.000   0.000   0.000   0.000   0.000    0.00    0.00    0.00    0.00    0.00    0.00   0.000   0.000   0.000   0.000   0.000   0.000   0.000   0.000   0.000
 2020 143    38  28.00  24.80  10.50   6.814   0.000   0.000   0.000   0.000   0.000   0.000   0.000   0.000   0.000   0.000   0.000    0.00    0.00    0.00    0.00    0.00    0.00   0.000   0.000   0.000   0.000   0.000   0.000   0.000   0.000   0.000
 2020 144    39  22.50  33.10  12.10   8.923   0.000   0.000   0.000   0.000   0.000   0.000   0.000   0.000   0.000   0.000   0.000    0.00    0.00    0.00    0.00    0.00    0.00   0.000   0.000   0.000   0.000   0.000   0.000   0.000   0.000   0.000
 2020 145    40  23.60  26.80  12.80   7.403   0.000   0.000   0.000   0.000   0.000   0.000   0.000   0.000   0.000   0.000   0.000    0.00    0.00    0.00    0.00    0.00    0.00   0.000   0.000   0.000   0.000   0.000   0.000   0.000   0.000   0.000
 2020 146    41  15.70  19.40   8.60   4.682   0.000   0.000   0.000   0.000   0.000   0.000   0.000   0.000   0.000   0.000   0.000    0.00    0.00    0.00    0.00    0.00    0.00   0.000   0.000   0.000   0.000   0.000   0.000   0.000   0.000   0.000
 2020 147    42  23.60  25.60   6.20   6.199   0.000   0.000   0.000   0.000   0.000   0.000   0.000   0.000   0.000   0.000   0.000    0.00    0.00    0.00    0.00    0.00    0.00   0.000   0.000   0.000   0.000   0.000   0.000   0.000   0.000   0.000
 2020 148    43  15.40  24.30   8.90   5.118   0.000   0.000   0.000   0.000   0.000   0.000   0.000   0.000   0.000   0.000   0.000    0.00    0.00    0.00    0.00    0.00    0.00   0.000   0.000   0.000   0.000   0.000   0.000   0.000   0.000   0.000
 2020 149    44  26.90  27.60  10.10   7.601   0.000   0.000   0.000   0.000   0.000   0.000   0.000   0.000   0.000   0.000   0.000    0.00    0.00    0.00    0.00    0.00    0.00   0.000   0.000   0.000   0.000   0.000   0.000   0.000   0.000   0.000
 2020 150    45  27.90  31.00  12.40   8.871   0.000   0.000   0.000   0.000   0.000   0.000   0.000   0.000   0.000   0.000   0.000    0.00    0.00    0.00    0.00    0.00    0.00   0.000   0.000   0.000   0.000   0.000   0.000   0.000   0.000   0.000
 2020 151    46  27.80  35.20  16.20  12.008   0.000   0.000   0.000   0.000   0.000   0.000   0.000   0.000   0.000   0.000   0.000    0.00    0.00    0.00    0.00    0.00    0.00   0.000   0.000   0.000   0.000   0.000   0.000   0.000   0.000   0.000
 2020 152    47  28.10  34.30  17.70  11.978   0.000   0.000   0.000   0.000   0.000   0.000   0.000   0.000   0.000   0.000   0.000    0.00    0.00    0.00    0.00    0.00    0.00   0.000   0.000   0.000   0.000   0.000   0.000   0.000   0.000   0.000
 2020 153    48  27.10  34.80  17.00  11.936   0.000   0.000   0.000   0.000   0.000   0.000   0.000   0.000   0.000   0.000   0.000    0.00    0.00    0.00    0.00    0.00    0.00   0.000   0.000   0.000   0.000   0.000   0.000   0.000   0.000   0.000
 2020 154    49  27.80  37.00  16.70  10.228   0.000   0.000   0.000   0.000   0.000   0.000   0.000   0.000   0.000   0.000   0.000    0.00    0.00    0.00    0.00    0.00    0.00   0.000   0.000   0.000   0.000   0.000   0.000   0.000   0.000   0.000
 2020 155    50  27.90  35.40  17.80   9.413   0.000   0.000   0.000   0.000   0.000   0.000   0.000   0.000   0.000   0.000   0.000    0.00    0.00    0.00    0.00    0.00    0.00   0.000   0.000   0.000   0.000   0.000   0.000   0.000   0.000   0.000
 2020 156    51  21.60  36.50  16.10   8.378   0.000   0.000   0.000   0.000   0.000   0.000   0.000   0.000   0.000   0.000   0.000    0.01    0.01    0.00    0.01    0.00    0.00   0.000   0.000   0.000   0.000   0.000   0.000   0.000   0.000   0.000
 2020 157    52  28.00  38.60  17.70  10.112   2.528   2.528   2.520   0.346   0.097   0.249   3.502   0.982   2.520   0.000   0.000    2.53    3.51    0.98    2.53    0.00    0.00   0.081   0.162   0.240   0.240   0.117   0.122   0.773   0.785   0.098
 2020 158    53  25.40  36.90  19.30  10.623   2.762   2.762   2.751   0.352   0.093   0.259   3.742   0.991   2.751   0.000   0.000    5.30    7.25    1.97    5.28    0.00    0.00   0.622   0.471   0.402   0.285   0.123   0.099   0.440   0.308   0.099
 2020 159    54  27.50  35.60  22.30  12.059   3.256   3.256   3.240   0.350   0.082   0.269   4.225   0.985   3.240   0.000   0.000    8.55   11.47    2.96    8.52    0.00    0.00   0.103   0.208   0.310   0.310   0.187   0.164   0.971   0.986   0.098
 2020 160    55  28.90  38.60  19.80  12.207   3.418   3.418   3.399   0.360   0.082   0.278   4.400   1.001   3.399   0.000   0.000   11.97   15.87    3.96   11.92    0.00    0.00   0.105   0.215   0.321   0.321   0.200   0.187   1.017   1.033   0.100
 2020 161    56   5.50  25.60   9.00   5.580   1.618   1.618   1.605   0.470   0.182   0.288   2.622   1.017   1.605   0.000   0.000   13.59   18.50    4.98   13.52    0.00    0.00   0.052   0.104   0.153   0.152   0.095   0.090   0.475   0.482   0.102
 2020 162    57  29.50  27.10   8.30   6.714   2.014   2.014   1.991   0.448   0.151   0.297   3.006   1.014   1.991   0.000   0.000   15.60   21.50    5.99   15.51    0.00    0.00   0.444   0.336   0.285   0.201   0.103   0.092   0.312   0.218   0.101
 2020 163    58  28.70  33.60  15.00   9.357   3.088   3.088   3.043   0.443   0.118   0.325   4.144   1.101   3.043   0.000   0.000   18.69   25.65    7.09   18.55    0.00    0.00   0.093   0.192   0.285   0.286   0.180   0.197   0.901   0.910   0.110
 2020 164    59  28.10  35.40  16.50   9.184   3.306   3.306   3.246   0.481   0.128   0.353   4.418   1.171   3.246   0.000   0.000   22.00   30.06    8.26   21.80    0.00    0.00   0.097   0.202   0.304   0.305   0.192   0.210   0.963   0.972   0.117
 2020 165    60  28.80  37.70  13.20  11.487   4.480   4.480   4.377   0.281   0.110   0.171   3.231   1.262   1.968   0.000   0.000   26.48   33.29    9.53   23.77    0.00    0.00   1.605   0.225   0.076   0.029   0.010   0.007   0.011   0.004   0.126
 2020 166    61  20.90  35.90  19.60  12.443   5.101   5.101   4.966   0.250   0.109   0.141   3.109   1.357   1.752   0.000   0.000   31.58   36.40   10.88   25.52    0.00    0.00   1.394   0.219   0.076   0.029   0.010   0.007   0.011   0.004   0.136
 2020 167    62  27.90  35.90  18.60  12.474   5.488   5.488   5.320   0.541   0.114   0.427   6.746   1.426   5.320   0.000   0.000   37.07   43.15   12.31   30.84    0.00    0.00   0.150   0.337   0.505   0.504   0.317   0.346   1.574   1.588   0.143
 2020 168    63  27.90  34.40  19.00  11.313   4.978   4.978   4.803   0.552   0.128   0.425   6.249   1.447   4.803   0.000   0.000   42.04   49.40   13.76   35.64    0.00    0.00   0.155   0.310   0.455   0.453   0.286   0.312   1.416   1.416   0.145
 2020 169    64  26.50  36.50  20.60  12.497   5.374   5.374   5.148   0.288   0.120   0.168   3.601   1.498   2.104   0.000   0.000   47.42   53.00   15.25   37.75    0.00    0.00   1.733   0.232   0.077   0.029   0.010   0.007   0.011   0.004   0.150
 2020 170    65  27.80  30.80  19.20   9.443   4.061   4.061   3.868   0.360   0.162   0.198   3.396   1.527   1.869   0.000   0.000   51.48   56.40   16.78   39.62    0.00    0.00   1.504   0.226   0.077   0.029   0.010   0.007   0.011   0.004   0.153
 2020 171    66  14.50  24.70  13.80   4.118   1.729   1.729   1.631   0.780   0.384   0.396   3.214   1.583   1.631   0.000   0.000   53.21   59.61   18.36   41.25    0.00    0.00   1.284   0.213   0.074   0.029   0.010   0.007   0.011   0.004   0.158
 2020 172    67  26.20  32.50  14.80   7.106   2.914   2.914   2.700   0.449   0.236   0.213   3.189   1.674   1.515   0.000   0.000   56.12   62.80   20.04   42.76    0.00    0.00   1.164   0.214   0.076   0.029   0.010   0.007   0.011   0.004   0.167
 2020 173    68  19.10  34.70  15.10   7.445   3.052   3.052   2.776   0.373   0.194   0.179   2.776   1.442   1.333   0.000   0.000   59.17   65.57   21.48   44.10    0.00    0.00   0.990   0.207   0.075   0.029   0.010   0.007   0.011   0.004   0.144
 2020 174    69  26.20  31.20  13.60   6.798   2.719   2.719   2.439   0.463   0.204   0.259   3.146   1.384   1.761   0.000   0.000   61.89   68.72   22.86   45.86    0.00    0.00   1.402   0.222   0.076   0.029   0.010   0.007   0.011   0.004   0.138
 2020 175    70  24.70  30.80  13.50   6.167   2.713   2.713   2.393   0.762   0.374   0.388   4.697   2.304   2.393   0.000   0.000   64.61   73.42   25.17   48.25    0.00    0.00   0.077   0.154   0.225   0.224   0.142   0.156   0.711   0.706   0.230
 2020 176    71  27.40  36.20  17.40   9.162   4.306   4.306   3.682   0.549   0.324   0.225   5.033   2.970   2.063   0.000   0.000   68.91   78.45   28.14   50.31    0.00    0.00   1.698   0.228   0.076   0.029   0.010   0.007   0.011   0.004   0.297
 2020 177    72  26.00  37.10  17.80  10.893   5.447   5.447   4.490   0.498   0.332   0.166   5.424   3.618   1.806   0.000   0.000   74.36   83.87   31.76   52.12    0.00    0.00   1.451   0.219   0.075   0.029   0.010   0.007   0.011   0.004   0.362
 2020 178    73  27.60  36.80  18.20   8.176   4.333   4.333   3.439   0.719   0.528   0.191   5.878   4.317   1.561   0.000   0.000   78.69   89.75   36.07   53.68    0.00    0.00   1.219   0.208   0.074   0.028   0.010   0.007   0.011   0.004   0.432
 2020 179    74  25.70  36.70  17.70   8.501   4.846   4.846   3.592   0.726   0.570   0.156   6.174   4.846   1.328   0.000   0.000   83.54   95.93   40.92   55.01    0.00    0.00   0.999   0.197   0.072   0.028   0.010   0.007   0.011   0.004   0.485
 2020 180    75  26.80  37.40  18.00   8.790   5.274   5.274   3.658   0.733   0.600   0.133   6.443   5.274   1.169   0.000   0.000   88.81  102.37   46.19   56.18    0.00    0.00   0.857   0.182   0.070   0.027   0.010   0.007   0.011   0.004   0.527
 2020 181    76  28.00  39.80  20.80  10.791   6.798   6.798   4.280   0.784   0.630   0.154   8.465   6.798   1.667   0.000   0.000   95.61  110.83   52.99   57.84    0.00    0.00   1.349   0.191   0.068   0.027   0.010   0.007   0.011   0.004   0.680
 2020 182    77  28.10  37.20  16.20   9.518   6.377   6.377   3.619   1.050   0.670   0.380   9.996   6.377   3.619   0.000   0.000  101.99  120.83   59.37   61.46    0.00    0.00   0.121   0.202   0.301   0.313   0.214   0.242   1.116   1.108   0.638
 2020 183    78  26.00  33.30  17.50   7.923   5.546   5.546   2.806   0.948   0.700   0.248   7.514   5.546   1.968   0.000   0.000  107.53  128.34   64.91   63.43    0.00    0.00   1.667   0.182   0.063   0.025   0.009   0.007   0.011   0.004   0.555
 2020 184    79  22.60  37.30  18.10   8.141   5.943   5.943   2.693   0.939   0.730   0.209   7.645   5.943   1.703   0.000   0.000  113.48  135.99   70.86   65.13    0.00    0.00   1.418   0.169   0.061   0.024   0.009   0.007   0.011   0.004   0.594
 2020 185    80  24.90  35.10  15.00   7.367   5.599   5.599   2.248   0.958   0.760   0.198   7.055   5.599   1.456   0.000   0.000  119.07  143.04   76.46   66.59    0.00    0.00   1.188   0.155   0.058   0.024   0.009   0.007   0.011   0.004   0.560
 2020 186    81  25.70  33.90  15.60   6.792   5.162   5.162   1.860   0.942   0.760   0.182   6.401   5.162   1.238   0.000   0.000  124.24  149.45   81.62   67.83    0.00    0.00   0.986   0.142   0.056   0.023   0.009   0.007   0.011   0.004   0.516
 2020 187    82  14.80  30.60  18.00   4.274   3.206   3.206   1.038   0.993   0.750   0.243   4.244   3.206   1.038   0.000   0.000  127.44  153.69   84.82   68.87    0.00    0.00   0.814   0.122   0.052   0.021   0.008   0.007   0.011   0.004   0.321
 2020 188    83  26.40  33.30  15.00   6.303   4.664   4.664   1.361   0.894   0.736   0.159   5.638   4.638   1.000   0.000   0.000  132.11  159.33   89.46   69.87    0.00    0.00   0.770   0.124   0.053   0.022   0.009   0.007   0.011   0.004   0.464
 2020 189    84  27.40  34.40  18.40   7.887   5.837   5.837   1.537   0.856   0.740   0.116   6.752   5.837   0.915   0.000   0.000  137.94  166.08   95.30   70.78    0.00    0.00   0.693   0.119   0.052   0.020   0.008   0.007   0.011   0.004   0.584
 2020 190    85  27.90  38.70  19.80  10.053   7.640   7.640   1.789   0.843   0.760   0.083   8.478   7.640   0.837   0.000   0.000  145.58  174.56  102.94   71.62    0.00    0.00   0.624   0.114   0.050   0.019   0.008   0.007   0.011   0.004   0.764
 2020 191    86  25.60  32.80  21.40   7.135   5.637   5.637   1.197   0.897   0.790   0.107   6.402   5.637   0.766   0.000   0.000  151.22  180.96  108.58   72.38    0.00    0.00   0.562   0.109   0.048   0.019   0.007   0.006   0.011   0.004   0.564
 2020 192    87  16.60  32.30  21.40   5.639   4.624   4.624   0.873   0.945   0.820   0.125   5.328   4.624   0.704   0.000   0.000  155.84  186.29  113.20   73.09    0.00    0.00   0.506   0.106   0.046   0.018   0.007   0.006   0.011   0.004   0.462
 2020 193    88  27.20  35.70  17.30   7.617   6.398   6.398   1.092   0.925   0.840   0.085   7.048   6.398   0.650   0.000   0.000  162.24  193.33  119.60   73.74    0.00    0.00   0.455   0.104   0.046   0.018   0.006   0.006   0.011   0.004   0.640
 2020 194    89  23.40  34.20  18.20   6.628   5.766   5.766   0.800   0.845   0.755   0.090   5.601   5.002   0.599   0.000   0.000  168.01  198.94  124.60   74.34    0.00    0.00   0.410   0.102   0.045   0.017   0.005   0.005   0.011   0.004   0.500
 2020 195    90  26.10  32.90  17.50   7.511   6.760   6.760   0.862   0.694   0.620   0.074   5.210   4.656   0.554   0.000   0.000  174.77  204.15  129.26   74.89    0.00    0.00   0.369   0.100   0.044   0.017   0.005   0.005   0.011   0.004   0.466
 2020 196    91  18.90  31.80  20.10   5.662   5.152   5.152   0.643   0.596   0.483   0.113   3.372   2.734   0.638   0.000   0.000  179.92  207.52  131.99   75.53    0.00    0.00   0.457   0.098   0.043   0.017   0.005   0.004   0.011   0.004   0.273
 2020 197    92  19.90  28.60  18.50   4.773   4.391   4.391   0.555   0.523   0.407   0.116   2.496   1.941   0.555   0.000   0.000  184.31  210.01  133.93   76.08    0.00    0.00   0.416   0.075   0.033   0.013   0.004   0.003   0.009   0.003   0.194
 2020 198    93  24.40  32.20  18.50   6.246   5.809   5.809   0.760   0.377   0.270   0.107   2.358   1.687   0.671   0.000   0.000  190.12  212.37  135.62   76.75    0.00    0.00   0.494   0.095   0.042   0.016   0.005   0.004   0.011   0.004   0.169
 2020 199    94  23.10  35.60  20.40   7.448   7.001   7.001   0.970   0.308   0.194   0.114   2.292   1.443   0.849   0.000   0.000  197.12  214.66  137.06   77.60    0.00    0.00   0.675   0.094   0.041   0.016   0.005   0.004   0.011   0.004   0.144
 2020 200    95  20.40  35.90  21.20   6.353   6.035   6.035   0.895   0.373   0.232   0.141   2.368   1.473   0.895   0.000   0.000  203.16  217.03  138.53   78.50    0.00    0.00   0.790   0.057   0.024   0.009   0.003   0.002   0.007   0.002   0.147
 2020 201    96  20.90  29.60  18.90   5.583   5.360   5.360   0.844   1.102   0.951   0.151   6.152   5.308   0.844   0.000   0.000  208.52  223.18  143.84   79.34    0.00    0.00   0.766   0.043   0.018   0.007   0.002   0.002   0.005   0.002   0.531
 2020 202    97  26.50  31.00  18.00   6.514   6.318   6.318   0.957   1.043   0.896   0.147   6.797   5.839   0.957   0.000   0.000  214.84  229.98  149.68   80.30    0.00    0.00   0.841   0.064   0.027   0.010   0.003   0.002   0.007   0.003   0.584
 2020 203    98  27.00  29.80  15.60   6.052   5.931   5.931   0.861   0.423   0.281   0.142   2.563   1.702   0.861   0.000   0.000  220.77  232.54  151.38   81.16    0.00    0.00   0.692   0.092   0.039   0.015   0.004   0.003   0.011   0.004   0.170
 2020 204    99  26.70  33.30  18.40   7.159   6.945   6.945   1.068   0.367   0.254   0.113   2.625   1.818   0.806   0.000   0.000  227.71  235.17  153.20   81.97    0.00    0.00   0.636   0.093   0.039   0.015   0.004   0.003   0.011   0.004   0.182
 2020 205   100  24.20  33.50  20.00   7.101   6.888   6.888   1.124   0.374   0.270   0.104   2.655   1.914   0.742   0.000   0.000  234.60  237.82  155.12   82.71    0.00    0.00   0.573   0.092   0.039   0.015   0.004   0.003   0.011   0.004   0.191
 2020 206   101  26.10  34.70  20.80   7.666   7.360   7.360   1.269   0.350   0.260   0.089   2.680   1.997   0.683   0.000   0.000  241.96  240.50  157.11   83.39    0.00    0.00   0.516   0.092   0.039   0.015   0.004   0.003   0.011   0.004   0.200
 2020 207   102  26.10  35.40  21.00   7.810   7.420   7.420   1.349   0.354   0.273   0.081   2.764   2.133   0.631   0.000   0.000  249.38  243.27  159.25   84.02    0.00    0.00   0.464   0.091   0.038   0.015   0.004   0.003   0.011   0.004   0.213
 2020 208   103  20.20  35.80  19.40   6.195   5.885   5.885   1.123   0.559   0.378   0.181   3.463   2.340   1.123   0.000   0.000  255.26  246.73  161.58   85.14    0.00    0.00   0.926   0.135   0.032   0.012   0.003   0.003   0.008   0.003   0.234
 2020 209   104  12.60  26.40  20.00   2.917   2.742   2.742   0.541   1.126   0.940   0.186   3.283   2.742   0.541   0.000   0.000  258.01  250.01  164.33   85.68    0.00    0.00   0.150   0.113   0.055   0.032   0.014   0.014   0.094   0.069   0.274
 2020 210   105  12.00  25.50  19.70   2.739   2.547   2.547   0.487   1.108   0.930   0.178   3.034   2.547   0.487   0.000   0.000  260.55  253.05  166.87   86.17    0.00    0.00   0.019   0.038   0.035   0.028   0.015   0.017   0.163   0.172   0.255
 2020 211   106  22.90  32.00  18.50   5.161   4.748   4.748   0.908   1.096   0.920   0.176   5.656   4.748   0.908   0.000   0.000  265.30  258.70  171.62   87.08    0.00    0.00   0.249   0.182   0.099   0.055   0.024   0.024   0.159   0.116   0.475
 2020 212   107  20.50  25.90  16.00   4.373   3.980   3.980   0.761   1.079   0.905   0.174   4.718   3.957   0.761   0.000   0.000  269.28  263.42  175.58   87.84    0.00    0.00   0.030   0.057   0.056   0.043   0.023   0.027   0.254   0.270   0.396
 2020 213   108  25.70  28.90  14.00   5.147   4.633   4.633   0.886   1.072   0.900   0.172   5.518   4.633   0.886   0.000   0.000  273.91  268.94  180.21   88.73    0.00    0.00   0.753   0.094   0.022   0.007   0.002   0.001   0.005   0.002   0.463
 2020 214   109  25.80  31.00  13.40   5.323   4.738   4.738   0.906   1.060   0.890   0.170   5.643   4.738   0.906   0.000   0.000  278.65  274.58  184.95   89.63    0.00    0.00   0.763   0.100   0.025   0.008   0.002   0.002   0.005   0.002   0.474
 2020 215   110  21.40  27.30  15.80   4.558   4.011   4.011   0.767   1.048   0.880   0.168   4.778   4.011   0.767   0.000   0.000  282.66  279.36  188.96   90.40    0.00    0.00   0.637   0.088   0.024   0.007   0.002   0.002   0.005   0.002   0.401
 2020 216   111  20.60  25.60  14.80   4.215   3.710   3.710   0.709   1.048   0.880   0.168   4.419   3.710   0.709   0.000   0.000  286.37  283.78  192.67   91.11    0.00    0.00   0.607   0.067   0.020   0.006   0.002   0.001   0.004   0.002   0.371
 2020 217   112  21.60  28.00  15.70   5.334   4.640   4.640   0.887   1.036   0.870   0.166   5.527   4.640   0.887   0.000   0.000  291.01  289.30  197.31   92.00    0.00    0.00   0.782   0.068   0.021   0.006   0.002   0.001   0.005   0.002   0.464
 2020 218   113  24.30  29.00  14.00   5.336   4.589   4.589   0.877   1.024   0.860   0.164   5.466   4.589   0.877   0.000   0.000  295.60  294.77  201.90   92.87    0.00    0.00   0.773   0.065   0.022   0.007   0.002   0.002   0.005   0.002   0.459
 2020 219   114  17.00  28.20  18.90   4.259   3.620   3.620   0.692   1.013   0.850   0.163   4.313   3.620   0.692   0.000   0.000  299.22  299.08  205.52   93.56    0.00    0.00   0.610   0.053   0.017   0.005   0.002   0.001   0.004   0.001   0.362
 2020 220   115  24.70  31.80  20.00   5.441   4.570   4.570   0.874   1.001   0.840   0.161   5.444   4.570   0.874   0.000   0.000  303.79  304.53  210.09   94.44    0.00    0.00   0.762   0.075   0.021   0.007   0.002   0.001   0.005   0.002   0.457
 2020 221   116  24.60  34.80  15.40   6.358   5.340   5.340   1.021   1.001   0.840   0.161   6.361   5.340   1.021   0.000   0.000  309.13  310.89  215.43   95.46    0.00    0.00   0.884   0.088   0.027   0.009   0.002   0.002   0.006   0.002   0.534
 2020 222   117  24.10  35.20  18.90   7.366   6.187   6.187   1.183   1.001   0.840   0.161   7.371   6.187   1.183   0.000   0.000  315.32  318.26  221.62   96.64    0.00    0.00   1.013   0.104   0.037   0.012   0.003   0.003   0.008   0.003   0.619
 2020 223   118  21.50  33.00  16.90   5.555   4.667   4.667   0.892   0.832   0.671   0.161   4.620   3.727   0.892   0.000   0.000  319.99  322.88  225.34   97.53    0.00    0.00   0.716   0.104   0.040   0.013   0.004   0.003   0.009   0.003   0.373
 2020 224   119  23.90  32.10  14.00   6.093   5.118   5.118   0.995   0.640   0.493   0.146   3.898   3.006   0.892   0.000   0.000  325.10  326.78  228.35   98.43    0.00    0.00   0.705   0.108   0.043   0.014   0.004   0.003   0.010   0.004   0.301
 2020 225   120  20.60  30.80  18.00   5.231   4.342   4.342   0.873   0.680   0.524   0.156   3.557   2.740   0.817   0.000   0.000  329.45  330.33  231.09   99.24    0.00    0.00   0.635   0.105   0.042   0.014   0.004   0.003   0.010   0.004   0.274
 2020 226   121  22.50  32.50  20.40   5.150   4.274   4.274   0.885   0.650   0.504   0.146   3.345   2.595   0.750   0.000   0.000  333.72  333.68  233.69   99.99    0.00    0.00   0.571   0.102   0.041   0.014   0.004   0.003   0.010   0.004   0.260
 2020 227   122  18.80  32.70  17.80   4.736   3.931   3.931   0.840   0.673   0.527   0.146   3.185   2.495   0.690   0.000   0.000  337.65  336.86  236.18  100.68    0.00    0.00   0.514   0.100   0.041   0.014   0.004   0.003   0.009   0.004   0.250
 2020 228   123  20.50  31.00  19.30   4.836   4.014   4.014   0.882   0.620   0.488   0.132   2.996   2.360   0.636   0.000   0.000  341.66  339.86  238.54  101.32    0.00    0.00   0.463   0.098   0.040   0.014   0.004   0.003   0.009   0.004   0.236
 2020 229   124  21.50  31.40  18.90   5.491   4.557   4.557   1.032   0.552   0.419   0.132   3.031   2.303   0.727   0.000   0.000  346.22  342.89  240.84  102.05    0.00    0.00   0.557   0.096   0.040   0.014   0.004   0.003   0.009   0.004   0.230
 2020 230   125  25.00  32.50  14.00   5.639   4.624   4.624   1.086   0.593   0.401   0.193   3.346   2.260   1.086   0.000   0.000  350.85  346.24  243.10  103.13    0.00    0.00   0.947   0.085   0.029   0.011   0.003   0.002   0.007   0.003   0.226
 2020 231   126  23.60  32.80  15.00   6.011   4.929   4.929   1.201   1.020   0.820   0.200   6.130   4.929   1.201   0.000   0.000  355.77  352.37  248.03  104.33    0.00    0.00   0.053   0.060   0.078   0.075   0.039   0.044   0.384   0.470   0.493
 2020 232   127  18.70  31.40  17.70   5.406   4.433   4.433   1.080   1.020   0.820   0.200   5.513   4.433   1.080   0.000   0.000  360.21  357.88  252.47  105.41    0.00    0.00   0.962   0.074   0.024   0.009   0.002   0.002   0.005   0.002   0.443
 2020 233   128  22.80  31.50  15.20   5.696   4.613   4.613   1.124   1.007   0.810   0.197   5.738   4.613   1.124   0.000   0.000  364.82  363.62  257.08  106.54    0.00    0.00   0.974   0.092   0.031   0.011   0.003   0.002   0.007   0.003   0.461
 2020 234   129  20.10  31.40  17.30   5.270   4.269   4.269   1.040   0.784   0.592   0.192   4.134   3.121   1.012   0.000   0.000  369.09  367.75  260.20  107.55    0.00    0.00   0.828   0.112   0.039   0.014   0.004   0.003   0.009   0.004   0.312
 2020 235   130  21.20  33.80  15.50   5.652   4.579   4.579   1.137   0.606   0.447   0.159   3.428   2.529   0.898   0.000   0.000  373.67  371.18  262.73  108.45    0.00    0.00   0.719   0.107   0.038   0.014   0.004   0.003   0.009   0.004   0.253
 2020 236   131  21.10  34.40  17.50   6.131   4.966   4.966   1.271   0.455   0.321   0.134   2.789   1.966   0.823   0.000   0.000  378.63  373.97  264.70  109.27    0.00    0.00   0.648   0.104   0.038   0.014   0.004   0.003   0.008   0.004   0.197
 2020 237   132  22.50  35.10  16.40   6.964   5.641   5.641   1.504   0.424   0.216   0.208   2.954   1.506   1.448   0.000   0.000  384.27  376.92  266.20  110.72    0.00    0.00   1.258   0.119   0.038   0.014   0.004   0.003   0.008   0.004   0.151
 2020 238   133  21.80  33.60  18.90   7.160   5.800   5.800   1.623   1.037   0.810   0.227   7.423   5.800   1.623   0.000   0.000  390.07  384.34  272.00  112.34    0.00    0.00   0.072   0.084   0.105   0.103   0.054   0.059   0.494   0.651   0.580
 2020 239   134  22.40  34.80  13.50   6.874   5.568   5.568   1.558   1.037   0.810   0.227   7.126   5.568   1.558   0.000   0.000  395.64  391.47  277.57  113.90    0.00    0.00   1.389   0.105   0.034   0.013   0.004   0.003   0.007   0.003   0.557
 2020 240   135  22.20  35.50  16.60   6.218   5.099   5.099   1.427   0.733   0.545   0.188   4.561   3.390   1.171   0.000   0.000  400.74  396.03  280.96  115.07    0.00    0.00   0.989   0.111   0.038   0.014   0.004   0.003   0.008   0.004   0.339
[...]
 2020 199    94  23.10  35.60  20.40   7.336   9.357   4.874   4.483   0.143   0.041   0.102   1.047   0.299   0.747   0.000   0.000  869.38  243.38   87.26  156.12    0.00    0.00   0.583   0.089   0.038   0.014   0.005   0.004   0.010   0.004   0.030
 2020 200    95  20.40  35.90  21.20   6.253   7.742   4.042   3.701   0.285   0.057   0.228   1.781   0.355   1.426   0.000   0.000  877.12  245.16   87.61  157.55    0.00    0.00   1.263   0.089   0.038   0.014   0.005   0.004   0.010   0.004   0.035
 2020 201    96  20.90  29.60  18.90   5.514   6.789   3.470   3.319   0.957   0.629   0.328   5.279   3.470   1.810   0.000   0.000  883.91  250.44   91.08  159.36    0.00    0.00   1.647   0.088   0.038   0.014   0.005   0.004   0.010   0.004   0.347
 2020 202    97  26.50  31.00  18.00   6.442   8.040   4.175   3.865   0.761   0.555   0.205   4.902   3.578   1.323   0.000   0.000  891.95  255.34   94.66  160.68    0.00    0.00   1.162   0.088   0.038   0.014   0.005   0.004   0.010   0.004   0.358
 2020 203    98  27.00  29.80  15.60   5.988   7.343   4.017   3.326   0.197   0.052   0.145   1.179   0.313   0.866   0.000   0.000  899.29  256.52   94.97  161.55    0.00    0.00   0.705   0.087   0.038   0.014   0.005   0.004   0.010   0.004   0.031
 2020 204    99  26.70  33.30  18.40   7.066   8.917   4.612   4.304   0.155   0.042   0.113   1.095   0.300   0.795   0.000   0.000  908.21  257.62   95.27  162.35    0.00    0.00   0.635   0.086   0.038   0.014   0.005   0.004   0.010   0.004   0.030
 2020 205   100  24.20  33.50  20.00   7.000   8.914   4.442   4.472   0.144   0.040   0.104   1.011   0.279   0.731   0.000   0.000  917.12  258.63   95.55  163.08    0.00    0.00   0.571   0.086   0.037   0.014   0.005   0.004   0.010   0.004   0.028
 2020 206   101  26.10  34.70  20.80   7.552   9.632   4.656   4.976   0.123   0.034   0.089   0.931   0.257   0.674   0.000   0.000  926.75  259.56   95.81  163.75    0.00    0.00   0.514   0.085   0.037   0.014   0.004   0.004   0.010   0.004   0.026
 2020 207   102  26.10  35.40  21.00   7.686   9.769   4.599   5.170   0.112   0.031   0.081   0.860   0.238   0.622   0.000   0.000  936.52  260.42   96.05  164.37    0.00    0.00   0.463   0.085   0.037   0.014   0.004   0.004   0.010   0.004   0.024
 2020 208   103  20.20  35.80  19.40   6.112   7.587   3.547   4.039   0.268   0.036   0.232   1.640   0.222   1.418   0.000   0.000  944.11  262.06   96.27  165.79    0.00    0.00   1.175   0.167   0.040   0.014   0.004   0.004   0.010   0.004   0.022
 2020 209   104  12.60  26.40  20.00   2.923   3.294   1.645   1.649   1.127   0.563   0.564   3.294   1.645   1.649   0.000   0.000  947.40  265.35   97.91  167.44    0.00    0.00   0.461   0.347   0.164   0.098   0.047   0.049   0.283   0.200   0.164
 2020 210   105  12.00  25.50  19.70   2.749   3.084   1.576   1.508   1.122   0.573   0.549   3.084   1.576   1.508   0.000   0.000  950.49  268.44   99.49  168.95    0.00    0.00   0.060   0.121   0.106   0.086   0.050   0.061   0.505   0.518   0.158
 2020 211   106  22.90  32.00  18.50   5.114   6.056   2.932   3.124   1.184   0.573   0.611   6.056   2.932   3.124   0.000   0.000  956.54  274.49  102.42  172.07    0.00    0.00   0.867   0.639   0.331   0.186   0.088   0.094   0.538   0.381   0.293
 2020 212   107  20.50  25.90  16.00   4.356   5.207   2.498   2.709   1.049   0.573   0.475   4.568   2.498   2.070   0.000   0.000  961.75  279.06  104.92  174.14    0.00    0.00   1.761   0.226   0.048   0.014   0.004   0.004   0.010   0.004   0.250
 2020 213   108  25.70  28.90  14.00   5.099   6.096   2.924   3.172   0.929   0.573   0.356   4.739   2.924   1.815   0.000   0.000  967.85  283.80  107.85  175.96    0.00    0.00   1.517   0.215   0.047   0.014   0.004   0.004   0.010   0.004   0.292
 2020 214   109  25.80  31.00  13.40   5.253   6.343   3.012   3.331   0.870   0.573   0.297   4.571   3.012   1.559   0.000   0.000  974.19  288.37  110.86  177.52    0.00    0.00   1.274   0.202   0.047   0.014   0.004   0.004   0.010   0.004   0.301
 2020 215   110  21.40  27.30  15.80   4.532   5.381   2.599   2.783   0.865   0.573   0.292   3.922   2.599   1.324   0.000   0.000  979.57  292.29  113.46  178.84    0.00    0.00   1.053   0.188   0.047   0.014   0.004   0.004   0.010   0.004   0.260
 2020 216   111  20.60  25.60  14.80   4.201   4.963   2.409   2.554   0.938   0.573   0.364   3.939   2.409   1.530   0.000   0.000  984.53  296.23  115.86  180.37    0.00    0.00   1.271   0.176   0.046   0.014   0.004   0.004   0.010   0.004   0.241
 2020 217   112  21.60  28.00  15.70   5.280   6.579   3.028   3.552   0.935   0.573   0.361   4.936   3.028   1.909   0.000   0.000  991.11  301.17  118.89  182.28    0.00    0.00   1.665   0.162   0.046   0.014   0.004   0.004   0.010   0.004   0.303
 2020 218   113  24.30  29.00  14.00   5.282   6.437   3.029   3.408   0.907   0.573   0.333   4.788   3.029   1.760   0.000   0.000  997.55  305.96  121.92  184.04    0.00    0.00   1.528   0.150   0.046   0.014   0.004   0.004   0.010   0.004   0.303
 2020 219   114  17.00  28.20  18.90   4.228   5.087   2.424   2.662   1.009   0.573   0.436   4.267   2.424   1.843   0.000   0.000   1003.    310.    124.    186.      0.      0.   1.607   0.155   0.045   0.014   0.004   0.004   0.010   0.004   0.242
 2020 220   115  24.70  31.80  20.00   5.403   6.366   3.098   3.268   0.929   0.573   0.356   5.021   3.098   1.923   0.000   0.000   1009.    315.    127.    188.      0.      0.   1.678   0.164   0.045   0.014   0.004   0.004   0.010   0.004   0.310
 2020 221   116  24.60  34.80  15.40   6.280   7.806   3.601   4.205   0.835   0.573   0.262   5.244   3.601   1.644   0.000   0.000   1017.    320.    131.    189.      0.      0.   1.413   0.150   0.045   0.014   0.004   0.004   0.010   0.004   0.360
 2020 222   117  24.10  35.20  18.90   7.242   9.215   4.153   5.062   0.763   0.573   0.189   5.525   4.153   1.372   0.000   0.000   1026.    326.    135.    191.      0.      0.   1.158   0.134   0.045   0.014   0.004   0.004   0.010   0.004   0.415
 2020 223   118  21.50  33.00  16.90   5.487   6.723   3.146   3.577   0.681   0.488   0.193   3.736   2.678   1.058   0.000   0.000   1033.    330.    138.    192.      0.      0.   0.858   0.120   0.044   0.014   0.004   0.004   0.010   0.004   0.268
 2020 224   119  23.90  32.10  14.00   6.023   7.526   3.436   4.089   0.342   0.189   0.153   2.060   1.139   0.921   0.000   0.000   1040.    332.    139.    193.      0.      0.   0.733   0.109   0.043   0.014   0.004   0.004   0.010   0.004   0.114
 2020 225   120  20.60  30.80  18.00   5.173   6.302   2.886   3.417   0.331   0.169   0.163   1.715   0.872   0.843   0.000   0.000   1047.    334.    140.    194.      0.      0.   0.660   0.105   0.042   0.014   0.004   0.004   0.010   0.004   0.087
 2020 226   121  22.50  32.50  20.40   5.109   6.023   2.781   3.243   0.292   0.141   0.151   1.493   0.719   0.774   0.000   0.000   1053.    335.    141.    194.      0.      0.   0.594   0.102   0.042   0.014   0.004   0.004   0.010   0.004   0.072
 2020 227   122  18.80  32.70  17.80   4.683   5.625   2.482   3.143   0.284   0.132   0.152   1.328   0.616   0.712   0.000   0.000   1058.    336.    141.    195.      0.      0.   0.535   0.100   0.041   0.014   0.004   0.003   0.010   0.004   0.062
 2020 228   123  20.50  31.00  19.30   4.796   5.705   2.474   3.231   0.250   0.113   0.137   1.197   0.541   0.656   0.000   0.000   1064.    338.    142.    196.      0.      0.   0.482   0.098   0.041   0.014   0.004   0.003   0.010   0.004   0.054
 2020 229   124  21.50  31.40  18.90   5.429   6.640   2.721   3.919   0.226   0.089   0.137   1.229   0.484   0.745   0.000   0.000   1071.    339.    142.    197.      0.      0.   0.573   0.097   0.040   0.014   0.004   0.003   0.010   0.004   0.048
 2020 230   125  25.00  32.50  14.00   5.566   6.838   2.705   4.133   0.345   0.079   0.267   1.923   0.438   1.485   0.000   0.000   1077.    341.    143.    198.      0.      0.   1.294   0.116   0.040   0.014   0.004   0.003   0.010   0.004   0.044
 2020 231   126  23.60  32.80  15.00   5.940   7.391   2.797   4.595   1.244   0.471   0.773   7.391   2.797   4.595   0.000   0.000   1085.    348.    145.    203.      0.      0.   0.196   0.225   0.293   0.272   0.154   0.186   1.610   1.657   0.280
 2020 232   127  18.70  31.40  17.70   5.332   6.607   2.510   4.096   0.815   0.471   0.344   4.345   2.510   1.835   0.000   0.000   1091.    352.    148.    204.      0.      0.   1.636   0.125   0.039   0.014   0.004   0.003   0.010   0.004   0.251
 2020 233   128  22.80  31.50  15.20   5.629   6.973   2.650   4.323   0.737   0.471   0.266   4.147   2.650   1.497   0.000   0.000   1098.    357.    151.    206.      0.      0.   1.304   0.119   0.039   0.014   0.004   0.003   0.010   0.004   0.265
 2020 234   129  20.10  31.40  17.30   5.201   6.384   2.449   3.935   0.693   0.471   0.222   3.605   2.449   1.157   0.000   0.000   1105.    360.    153.    207.      0.      0.   0.968   0.115   0.039   0.014   0.004   0.003   0.010   0.004   0.245
 2020 235   130  21.20  33.80  15.50   5.588   6.925   2.631   4.294   0.296   0.134   0.162   1.657   0.750   0.906   0.000   0.000   1112.    362.    154.    208.      0.      0.   0.724   0.110   0.038   0.014   0.004   0.003   0.010   0.004   0.075
 2020 236   131  21.10  34.40  17.50   6.050   7.566   2.774   4.792   0.223   0.086   0.137   1.350   0.520   0.830   0.000   0.000   1119.    363.    154.    209.      0.      0.   0.652   0.106   0.038   0.014   0.004   0.003   0.010   0.004   0.052
 2020 237   132  22.50  35.10  16.40   6.882   8.789   3.060   5.729   0.260   0.049   0.211   1.793   0.340   1.453   0.000   0.000   1128.    365.    155.    210.      0.      0.   1.259   0.121   0.038   0.014   0.004   0.003   0.010   0.004   0.034
 2020 238   133  21.80  33.60  18.90   7.030   9.028   3.018   6.010   1.077   0.429   0.647   7.569   3.018   4.551   0.000   0.000   1137.    373.    158.    215.      0.      0.   0.196   0.229   0.283   0.269   0.151   0.182   1.596   1.644   0.302
 2020 239   134  22.40  34.80  13.50   6.831   8.769   2.933   5.836   0.698   0.429   0.269   4.771   2.933   1.838   0.000   0.000   1146.    377.    161.    217.      0.      0.   1.641   0.125   0.037   0.014   0.004   0.003   0.010   0.004   0.293
 2020 240   135  22.20  35.50  16.60   6.148   7.688   2.640   5.049   0.668   0.429   0.239   4.107   2.640   1.467   0.000   0.000   1154.    381.    163.    218.      0.      0.   1.277   0.119   0.037   0.014   0.004   0.003   0.010   0.004   0.264
 2020 241   136  22.00  35.50  17.20   6.216   7.777   2.669   5.108   0.612   0.339   0.273   3.805   2.110   1.695   0.000   0.000   1161.    385.    165.    220.      0.      0.   1.434   0.184   0.043   0.014   0.004   0.003   0.010   0.004   0.211
 2020 242   137  11.50  24.60  17.20   2.625   2.996   1.118   1.878   1.141   0.426   0.715   2.996   1.118   1.878   0.000   0.000   1164.    388.    167.    222.      0.      0.   0.078   0.159   0.148   0.104   0.058   0.071   0.620   0.639   0.112
 2020 243   138  19.90  33.30  16.00   4.706   5.701   2.004   3.697   1.211   0.426   0.786   5.701   2.004   3.697   0.000   0.000   1170.    394.    169.    225.      0.      0.   0.155   0.304   0.303   0.205   0.115   0.139   1.219   1.256   0.200
 2020 244   139  22.40  24.60  14.00   4.388   5.306   1.869   3.437   1.209   0.425   0.783   5.304   1.867   3.437   0.000   0.000   1175.    399.    170.    229.      0.      0.   0.944   0.705   0.469   0.189   0.086   0.091   0.557   0.396   0.187
 2020 245   140  13.90  25.80  15.20   3.139   3.676   1.337   2.339   1.171   0.426   0.745   3.676   1.337   2.339   0.000   0.000   1179.    403.    172.    231.      0.      0.   0.094   0.190   0.254   0.125   0.070   0.085   0.748   0.772   0.134
 2020 246   141  22.80  31.00  13.90   4.584   5.520   1.952   3.568   0.879   0.426   0.453   4.029   1.952   2.077   0.000   0.000   1184.    407.    174.    233.      0.      0.   1.741   0.233   0.070   0.013   0.004   0.003   0.010   0.003   0.195
 2020 247   142  22.90  26.30  13.20   4.579   5.569   1.950   3.619   0.833   0.426   0.407   3.812   1.950   1.862   0.000   0.000   1190.    411.    176.    235.      0.      0.   1.533   0.227   0.068   0.013   0.004   0.003   0.010   0.003   0.195
 2020 248   143  22.30  31.60   8.20   4.624   5.733   1.969   3.764   0.787   0.426   0.361   3.637   1.969   1.668   0.000   0.000   1196.    414.    178.    237.      0.      0.   1.347   0.221   0.067   0.013   0.004   0.003   0.010   0.003   0.197
 2020 249   144  21.30  34.00  15.50   5.748   7.183   2.448   4.735   0.685   0.426   0.260   3.940   2.448   1.492   0.000   0.000   1203.    418.    180.    238.      0.      0.   1.178   0.215   0.066   0.013   0.004   0.003   0.010   0.003   0.245
 2020 250   145  19.40  36.00  19.60   6.177   7.790   2.630   5.160   0.640   0.426   0.214   3.954   2.630   1.323   0.000   0.000   1211.    422.    183.    240.      0.      0.   1.019   0.208   0.064   0.013   0.004   0.003   0.010   0.003   0.263
 2020 251   146  19.30  34.00  14.00   5.417   6.790   2.307   4.484   0.745   0.426   0.319   4.034   2.307   1.727   0.000   0.000   1218.    426.    185.    241.      0.      0.   1.409   0.221   0.063   0.013   0.004   0.003   0.010   0.003   0.231
 2020 252   147   3.30  16.00   2.80   2.544   3.324   1.083   2.241   1.307   0.426   0.881   3.324   1.083   2.241   0.000   0.000   1221.    430.    186.    244.      0.      0.   0.615   0.462   0.324   0.120   0.055   0.058   0.355   0.253   0.108
 2020 253   148   3.70   5.20   1.70   0.705   0.820   0.276   0.544   1.164   0.391   0.772   0.820   0.276   0.544   0.000   0.000   1222.    430.    186.    244.      0.      0.   0.146   0.111   0.086   0.033   0.013   0.013   0.083   0.059   0.028
 2020 254   149   9.20  12.90   4.70   1.691   1.954   0.560   1.394   1.156   0.331   0.824   1.954   0.560   1.394   0.000   0.000   1224.    432.    187.    246.      0.      0.   0.365   0.272   0.233   0.101   0.032   0.034   0.209   0.149   0.056
 2020 255   150  20.10  22.00   8.90   3.316   3.932   1.083   2.850   1.186   0.327   0.859   3.932   1.083   2.850   0.000   0.000   1228.    436.    188.    248.      0.      0.   0.112   0.224   0.333   0.227   0.082   0.099   0.872   0.902   0.108
 2020 256   151  21.50  28.60   8.80   4.227   5.190   1.380   3.810   0.825   0.327   0.498   3.487   1.380   2.107   0.000   0.000   1233.    440.    189.    250.      0.      0.   1.756   0.233   0.077   0.021   0.004   0.003   0.009   0.003   0.138
 2020 257   152  21.50  29.00   5.90   3.570   4.405   1.166   3.239   0.859   0.327   0.533   3.068   1.166   1.903   0.000   0.000   1237.    443.    191.    252.      0.      0.   1.558   0.228   0.076   0.021   0.004   0.003   0.009   0.003   0.117
 2020 258   153  18.50  27.30   7.90   3.434   4.175   1.121   3.054   0.828   0.326   0.502   2.843   1.121   1.722   0.000   0.000   1241.    446.    192.    254.      0.      0.   1.382   0.224   0.075   0.021   0.004   0.003   0.009   0.003   0.112
 2020 259   154  19.30  28.20   8.60   4.005   4.924   1.308   3.616   1.230   0.326   0.903   4.924   1.308   3.616   0.000   0.000   1246.    451.    193.    258.      0.      0.   0.126   0.285   0.418   0.308   0.103   0.125   1.106   1.144   0.131
 2020 260   155  18.60  27.70   7.40   3.638   4.456   1.188   3.268   1.225   0.326   0.898   4.456   1.188   3.268   0.000   0.000   1251.    455.    194.    261.      0.      0.   0.836   0.630   0.529   0.291   0.075   0.078   0.484   0.345   0.119
 2020 261   156  18.10  26.90   8.10   3.410   4.142   1.113   3.029   0.932   0.326   0.606   3.178   1.113   2.065   0.000   0.000   1255.    458.    195.    263.      0.      0.   1.713   0.233   0.076   0.024   0.004   0.003   0.009   0.003   0.111
 2020 262   157  16.80  27.70   9.00   4.210   5.250   1.375   3.876   0.771   0.326   0.444   3.245   1.375   1.871   0.000   0.000   1260.    462.    197.    265.      0.      0.   1.523   0.229   0.075   0.024   0.004   0.003   0.009   0.003   0.137
 2020 263   158  17.20  28.20   9.60   5.316   6.869   1.736   5.134   0.644   0.326   0.318   3.425   1.736   1.690   0.000   0.000   1267.    465.    198.    267.      0.      0.   1.348   0.224   0.074   0.024   0.004   0.003   0.009   0.003   0.174
 2020 264   159  18.20  30.30  14.60   6.041   7.857   1.972   5.885   0.578   0.326   0.251   3.492   1.972   1.519   0.000   0.000   1275.    468.    200.    268.      0.      0.   1.184   0.219   0.073   0.024   0.004   0.003   0.009   0.003   0.197
 2020 265   160  18.20  29.10  10.80   4.883   6.173   1.594   4.578   0.702   0.326   0.375   3.427   1.594   1.833   0.000   0.000   1281.    472.    202.    270.      0.      0.   1.482   0.232   0.075   0.024   0.004   0.003   0.009   0.003   0.159
 2020 266   161  18.70  28.80   9.70   4.399   5.482   1.436   4.046   1.246   0.326   0.920   5.482   1.436   4.046   0.000   0.000   1287.    477.    203.    274.      0.      0.   0.157   0.321   0.464   0.373   0.113   0.137   1.218   1.261   0.144
 2020 267   162  17.40  29.20  13.00   3.968   4.837   1.295   3.542   0.850   0.326   0.523   3.371   1.295   2.075   0.000   0.000   1291.    481.    205.    276.      0.      0.   1.723   0.234   0.076   0.024   0.004   0.003   0.009   0.003   0.130
 2020 268   163  18.50  34.60  10.60   4.114   5.104   1.343   3.761   0.783   0.326   0.456   3.219   1.343   1.876   0.000   0.000   1296.    484.    206.    278.      0.      0.   1.529   0.229   0.075   0.024   0.004   0.003   0.009   0.003   0.134
 2020 269   164  18.70  36.80  10.50   5.272   6.646   1.721   4.925   0.648   0.326   0.322   3.416   1.721   1.695   0.000   0.000   1303.    487.    208.    280.      0.      0.   1.354   0.225   0.074   0.024   0.004   0.003   0.009   0.003   0.172
 2020 270   165  16.50  34.10  11.30   4.260   5.327   1.391   3.937   0.684   0.326   0.358   2.915   1.391   1.524   0.000   0.000   1308.    490.    209.    281.      0.      0.   1.190   0.219   0.072   0.023   0.004   0.003   0.009   0.003   0.139
 2020 271   166  15.80  21.70  12.50   5.037   6.586   1.644   4.941   0.600   0.326   0.273   3.021   1.644   1.377   0.000   0.000   1315.    493.    211.    283.      0.      0.   1.048   0.215   0.071   0.023   0.004   0.003   0.009   0.003   0.164
 2020 272   167  19.00  20.10   3.50   4.220   5.457   1.378   4.080   0.620   0.326   0.294   2.617   1.378   1.239   0.000   0.000   1320.    496.    212.    284.      0.      0.   0.917   0.209   0.070   0.023   0.004   0.003   0.009   0.003   0.138
 2020 273   168  18.60  29.00   3.10   4.356   5.488   1.422   4.066   0.588   0.326   0.261   2.560   1.422   1.138   0.000   0.000   1326.    498.    214.    285.      0.      0.   0.822   0.204   0.069   0.023   0.004   0.003   0.009   0.003   0.142
 2020 274   169  17.60  26.20   6.00   4.171   5.288   1.362   3.926   0.577   0.326   0.251   2.407   1.358   1.048   0.000   0.000   1331.    501.    215.    286.      0.      0.   0.739   0.199   0.068   0.023   0.004   0.003   0.009   0.003   0.136
 2020 275   170  17.70  20.40   2.80   3.062   3.811   1.000   2.811   0.643   0.326   0.316   1.968   1.000   0.968   0.000   0.000   1335.    503.    216.    287.      0.      0.   0.665   0.194   0.066   0.023   0.004   0.003   0.009   0.003   0.100
 2020 276   171  17.10  26.80   2.50   3.517   4.396   1.148   3.248   0.582   0.326   0.255   2.045   1.148   0.897   0.000   0.000   1339.    505.    217.    288.      0.      0.   0.599   0.190   0.065   0.023   0.004   0.003   0.009   0.003   0.115
 2020 277   172  15.50  22.00   4.00   3.702   4.703   1.209   3.494   0.551   0.326   0.225   2.040   1.209   0.832   0.000   0.000   1344.    507.    218.    289.      0.      0.   0.539   0.186   0.064   0.023   0.004   0.003   0.009   0.003   0.121
