*SOIL-PLANT-ATMOSPHERE MODULE OUTPUT FILE

*DSSAT Cropping System Model Ver. 4.7.5.035 -develop  JUN 14, 2021 09:08:55

*RUN   1        : 20 IRRIG, PETPEN NO KCB.. MZCER047 KSRT2001    1
 MODEL          : MZCER047 - Maize
 EXPERIMENT     : KSRT2001 SB ARM 2020 KS, IRRIGATED
 DATA PATH      :
 TREATMENT  1   : 20 IRRIG, PETPEN NO KCB.. MZCER047
  
!                                                                                                                                                                                        Soil evaporation (mm/d) by soil depth (cm):
!                                                                                                                                                                                        0-5    5-15   15-29   29-43   43-53   53-64  64-132 132-201
@YEAR DOY   DAS   SRAA  TMAXA  TMINA    REFA    EOAA    EOPA    EOSA    KCAA    KCBA    KEAA    ETAA    EPAA    ESAA    EFAA    EMAA    EOAC    ETAC    EPAC    ESAC    EFAC    EMAC    ES1D    ES2D    ES3D    ES4D    ES5D    ES6D    ES7D    ES8D   TRWUD
 2020 106     1  24.00  17.90  -7.20   4.818   4.818   0.000   4.818   0.300   0.000   0.300   1.443   0.000   1.443   0.000   0.000    4.82    1.44    0.00    1.44    0.00    0.00   1.194   0.158   0.046   0.017   0.007   0.005   0.012   0.004   0.000
 2020 107     2  23.60  16.50  -2.00   5.189   5.189   0.000   5.189   0.255   0.000   0.255   1.323   0.000   1.323   0.000   0.000   10.01    2.77    0.00    2.77    0.00    0.00   1.075   0.157   0.046   0.017   0.007   0.005   0.012   0.004   0.000
 2020 108     3  23.70  13.80  -2.00   3.998   3.998   0.000   3.998   0.304   0.000   0.304   1.215   0.000   1.215   0.000   0.000   14.00    3.98    0.00    3.98    0.00    0.00   0.968   0.156   0.045   0.017   0.007   0.005   0.012   0.004   0.000
 2020 109     4  19.70  23.60  -1.10   6.512   6.512   0.000   6.512   0.172   0.000   0.172   1.117   0.000   1.117   0.000   0.000   20.52    5.10    0.00    5.10    0.00    0.00   0.871   0.155   0.045   0.017   0.007   0.005   0.012   0.004   0.000
 2020 110     5  23.20  21.80   1.30   5.543   5.543   0.000   5.543   0.186   0.000   0.186   1.029   0.000   1.029   0.000   0.000   26.06    6.13    0.00    6.13    0.00    0.00   0.784   0.154   0.045   0.017   0.007   0.005   0.012   0.004   0.000
 2020 111     6  24.00  23.50   1.70   5.551   5.551   0.000   5.551   0.171   0.000   0.171   0.950   0.000   0.950   0.000   0.000   31.61    7.08    0.00    7.08    0.00    0.00   0.706   0.153   0.045   0.017   0.007   0.005   0.012   0.004   0.000
 2020 112     7  12.80  19.40   2.50   3.666   3.666   0.000   3.666   0.251   0.000   0.251   0.918   0.000   0.918   0.000   0.000   35.28    8.00    0.00    8.00    0.00    0.00   0.675   0.152   0.045   0.017   0.007   0.005   0.012   0.004   0.000
 2020 113     8  15.20  22.00   5.00   4.254   4.254   0.000   4.254   0.242   0.000   0.242   1.030   0.000   1.030   0.000   0.000   39.53    9.03    0.00    9.03    0.00    0.00   0.788   0.151   0.045   0.017   0.007   0.005   0.012   0.004   0.000
 2020 114     9  22.00  27.10   3.50   6.246   6.246   0.000   6.246   0.174   0.000   0.174   1.090   0.000   1.090   0.000   0.000   45.78   10.12    0.00   10.12    0.00    0.00   0.849   0.150   0.045   0.017   0.007   0.005   0.012   0.004   0.000
 2020 115    10  16.50  17.60   4.30   4.840   4.840   0.000   4.840   0.207   0.000   0.207   1.004   0.000   1.004   0.000   0.000   50.62   11.12    0.00   11.12    0.00    0.00   0.764   0.149   0.045   0.017   0.007   0.005   0.012   0.004   0.000
 2020 116    11  22.50  20.50   1.40   5.200   5.200   0.000   5.200   0.178   0.000   0.178   0.927   0.000   0.927   0.000   0.000   55.82   12.05    0.00   12.05    0.00    0.00   0.688   0.148   0.045   0.017   0.007   0.005   0.012   0.004   0.000
 2020 117    12  22.90  28.10   2.90   7.733   7.733   0.000   7.733   0.111   0.000   0.111   0.857   0.000   0.857   0.000   0.000   63.55   12.90    0.00   12.90    0.00    0.00   0.619   0.147   0.045   0.017   0.007   0.005   0.012   0.004   0.000
 2020 118    13  26.30  29.70   5.00   7.354   7.354   0.000   7.354   0.108   0.000   0.108   0.794   0.000   0.794   0.000   0.000   70.91   13.70    0.00   13.70    0.00    0.00   0.557   0.146   0.045   0.017   0.007   0.005   0.012   0.004   0.000
 2020 119    14  25.10  28.00   6.70   8.102   8.102   0.000   8.102   0.091   0.000   0.091   0.737   0.000   0.737   0.000   0.000   79.01   14.43    0.00   14.43    0.00    0.00   0.502   0.145   0.045   0.017   0.007   0.005   0.012   0.004   0.000
 2020 120    15  27.50  23.70   4.70   8.015   8.015   0.000   8.015   0.086   0.000   0.086   0.686   0.000   0.686   0.000   0.000   87.02   15.12    0.00   15.12    0.00    0.00   0.452   0.144   0.045   0.017   0.007   0.005   0.012   0.004   0.000
 2020 121    16  22.60  32.60   1.20   9.571   9.571   0.000   9.571   0.067   0.000   0.067   0.640   0.000   0.640   0.000   0.000   96.59   15.76    0.00   15.76    0.00    0.00   0.407   0.143   0.045   0.017   0.007   0.005   0.012   0.004   0.000
 2020 122    17  24.70  34.00  10.00   9.090   9.090   0.000   9.090   0.066   0.000   0.066   0.599   0.000   0.599   0.000   0.000  105.68   16.36    0.00   16.36    0.00    0.00   0.366   0.142   0.045   0.017   0.007   0.005   0.012   0.004   0.000
 2020 123    18  25.90  25.50  12.00   7.624   7.624   0.000   7.624   0.074   0.000   0.074   0.561   0.000   0.561   0.000   0.000  113.31   16.92    0.00   16.92    0.00    0.00   0.330   0.141   0.044   0.017   0.007   0.005   0.012   0.004   0.000
 2020 124    19  26.40  26.80   6.30   7.463   7.463   0.000   7.463   0.071   0.000   0.071   0.527   0.000   0.527   0.000   0.000  120.77   17.45    0.00   17.45    0.00    0.00   0.297   0.141   0.044   0.017   0.007   0.005   0.012   0.004   0.000
 2020 125    20  20.10  26.60  11.90   6.347   6.347   0.000   6.347   0.078   0.000   0.078   0.497   0.000   0.497   0.000   0.000  127.12   17.95    0.00   17.95    0.00    0.00   0.267   0.140   0.044   0.017   0.007   0.005   0.012   0.004   0.000
 2020 126    21  27.90  25.00   6.50   6.717   6.717   0.000   6.717   0.070   0.000   0.070   0.469   0.000   0.469   0.000   0.000  133.84   18.41    0.00   18.41    0.00    0.00   0.241   0.139   0.044   0.017   0.007   0.005   0.012   0.004   0.000
 2020 127    22  26.50  22.40   5.80   6.643   6.643   0.000   6.643   0.067   0.000   0.067   0.444   0.000   0.444   0.000   0.000  140.48   18.86    0.00   18.86    0.00    0.00   0.217   0.138   0.044   0.017   0.007   0.005   0.012   0.004   0.000
 2020 128    23  26.20  27.50   8.60   8.907   8.907   0.000   8.907   0.047   0.000   0.047   0.421   0.000   0.421   0.000   0.000  149.39   19.28    0.00   19.28    0.00    0.00   0.195   0.137   0.044   0.017   0.007   0.005   0.012   0.004   0.000
 2020 129    24  27.40  17.10   4.50   5.675   5.675   0.000   5.675   0.071   0.000   0.071   0.401   0.000   0.401   0.000   0.000  155.06   19.68    0.00   19.68    0.00    0.00   0.176   0.136   0.044   0.017   0.007   0.005   0.012   0.004   0.000
 2020 130    25  27.20  22.10   3.50   7.243   7.243   0.000   7.243   0.053   0.000   0.053   0.382   0.000   0.382   0.000   0.000  162.30   20.06    0.00   20.06    0.00    0.00   0.158   0.135   0.044   0.017   0.007   0.005   0.012   0.004   0.000
 2020 131    26  27.10  18.30   4.10   6.105   6.105   0.000   6.105   0.060   0.000   0.060   0.366   0.000   0.366   0.000   0.000  168.41   20.43    0.00   20.43    0.00    0.00   0.142   0.134   0.044   0.017   0.007   0.005   0.012   0.004   0.000
 2020 132    27   3.30   8.90   2.80   1.353   1.353   0.000   1.353   0.392   0.000   0.392   0.530   0.000   0.530   0.000   0.000  169.76   20.96    0.00   20.96    0.00    0.00   0.308   0.133   0.044   0.017   0.007   0.005   0.012   0.004   0.000
 2020 133    28   5.40   8.20   2.60   1.337   1.337   0.000   1.337   0.526   0.000   0.526   0.703   0.000   0.703   0.000   0.000  171.10   21.66    0.00   21.66    0.00    0.00   0.481   0.132   0.044   0.017   0.007   0.005   0.012   0.004   0.000
 2020 134    29  17.80  22.10   6.70   5.165   5.165   0.000   5.165   0.133   0.000   0.133   0.689   0.000   0.689   0.000   0.000  176.26   22.35    0.00   22.35    0.00    0.00   0.468   0.131   0.044   0.017   0.007   0.005   0.012   0.004   0.000
 2020 135    30  20.60  26.70   9.30   6.266   6.266   0.000   6.266   0.104   0.000   0.104   0.651   0.000   0.651   0.000   0.000  182.53   23.00    0.00   23.00    0.00    0.00   0.432   0.131   0.044   0.017   0.007   0.005   0.012   0.004   0.000
 2020 136    31  24.10  26.00  12.90   6.091   6.091   0.000   6.091   0.108   0.000   0.108   0.657   0.000   0.657   0.000   0.000  188.62   23.66    0.00   23.66    0.00    0.00   0.438   0.130   0.044   0.017   0.007   0.005   0.012   0.004   0.000
 2020 137    32  22.90  24.30  12.70   5.331   5.331   0.000   5.331   0.167   0.000   0.167   0.892   0.000   0.892   0.000   0.000  193.95   24.55    0.00   24.55    0.00    0.00   0.674   0.129   0.044   0.017   0.007   0.005   0.012   0.004   0.000
 2020 138    33  27.60  25.40  10.10   6.688   6.688   0.000   6.688   0.157   0.000   0.157   1.053   0.000   1.053   0.000   0.000  200.64   25.60    0.00   25.60    0.00    0.00   0.836   0.128   0.043   0.017   0.007   0.005   0.012   0.004   0.000
 2020 139    34  26.90  28.00   7.00   7.195   7.195   0.000   7.195   0.135   0.000   0.135   0.969   0.000   0.969   0.000   0.000  207.83   26.57    0.00   26.57    0.00    0.00   0.753   0.127   0.043   0.017   0.007   0.005   0.012   0.004   0.000
 2020 140    35  23.70  28.80  11.00   7.074   7.074   0.000   7.074   0.126   0.000   0.126   0.893   0.000   0.893   0.000   0.000  214.91   27.46    0.00   27.46    0.00    0.00   0.678   0.126   0.043   0.017   0.007   0.005   0.012   0.004   0.000
 2020 141    36  20.80  26.00  11.30   6.413   6.413   0.000   6.413   0.129   0.000   0.129   0.824   0.000   0.824   0.000   0.000  221.32   28.29    0.00   28.29    0.00    0.00   0.610   0.126   0.043   0.017   0.007   0.005   0.012   0.004   0.000
 2020 142    37  16.10  27.40  12.20   6.044   6.044   0.000   6.044   0.250   0.000   0.250   1.510   0.000   1.510   0.000   0.000  227.36   29.80    0.00   29.80    0.00    0.00   1.241   0.181   0.044   0.017   0.007   0.005   0.012   0.004   0.000
 2020 143    38  28.00  24.80  10.50   6.794   6.794   0.000   6.794   0.819   0.000   0.819   5.564   0.000   5.564   0.000   0.000  234.16   35.36    0.00   35.36    0.00    0.00   0.196   0.392   0.332   0.333   0.264   0.292   1.862   1.893   0.000
 2020 144    39  22.50  33.10  12.10   8.914   8.914   0.000   8.914   0.234   0.000   0.234   2.083   0.000   2.083   0.000   0.000  243.07   37.45    0.00   37.45    0.00    0.00   1.761   0.233   0.044   0.017   0.007   0.005   0.011   0.004   0.000
 2020 145    40  23.60  26.80  12.80   7.376   7.376   0.000   7.376   0.258   0.000   0.258   1.906   0.000   1.906   0.000   0.000  250.45   39.35    0.00   39.35    0.00    0.00   1.585   0.231   0.044   0.017   0.007   0.005   0.011   0.004   0.000
 2020 146    41  15.70  19.40   8.60   4.660   4.660   0.000   4.660   0.377   0.000   0.377   1.756   0.000   1.756   0.000   0.000  255.11   41.11    0.00   41.11    0.00    0.00   1.437   0.230   0.044   0.017   0.007   0.005   0.011   0.004   0.000
 2020 147    42  23.60  25.60   6.20   6.128   6.128   0.000   6.128   0.265   0.000   0.265   1.621   0.000   1.621   0.000   0.000  261.24   42.73    0.00   42.73    0.00    0.00   1.304   0.228   0.044   0.017   0.007   0.005   0.011   0.004   0.000
 2020 148    43  15.40  24.30   8.90   5.062   5.062   0.000   5.062   1.000   0.000   1.000   5.062   0.000   5.062   0.000   0.000  266.30   47.79    0.00   47.79    0.00    0.00   0.157   0.366   0.336   0.301   0.239   0.264   1.686   1.714   0.000
 2020 149    44  26.90  27.60  10.10   7.598   7.598   0.000   7.598   1.000   0.000   1.000   7.598   0.000   7.598   0.000   0.000  273.90   55.39    0.00   55.39    0.00    0.00   1.921   1.448   0.867   0.481   0.312   0.300   1.334   0.936   0.000
 2020 150    45  27.90  31.00  12.40   8.836   8.836   0.000   8.836   0.222   0.000   0.222   1.963   0.000   1.963   0.000   0.000  282.73   57.35    0.00   57.35    0.00    0.00   1.632   0.231   0.056   0.016   0.007   0.005   0.011   0.004   0.000
 2020 151    46  27.80  35.20  16.20  11.955  11.955   0.000  11.955   0.150   0.000   0.150   1.799   0.000   1.799   0.000   0.000  294.69   59.15    0.00   59.15    0.00    0.00   1.470   0.230   0.056   0.016   0.007   0.005   0.011   0.004   0.000
 2020 152    47  28.10  34.30  17.70  11.905  11.905   0.000  11.905   0.139   0.000   0.139   1.651   0.000   1.651   0.000   0.000  306.59   60.80    0.00   60.80    0.00    0.00   1.323   0.228   0.056   0.016   0.007   0.005   0.011   0.004   0.000
 2020 153    48  27.10  34.80  17.00  11.840  11.840   0.000  11.840   0.128   0.000   0.128   1.517   0.000   1.517   0.000   0.000  318.43   62.32    0.00   62.32    0.00    0.00   1.191   0.226   0.056   0.016   0.007   0.005   0.011   0.004   0.000
 2020 154    49  27.80  37.00  16.70  10.084  10.084   0.000  10.084   0.139   0.000   0.139   1.397   0.000   1.397   0.000   0.000  328.52   63.72    0.00   63.72    0.00    0.00   1.072   0.225   0.056   0.016   0.007   0.005   0.011   0.004   0.000
 2020 155    50  27.90  35.40  17.80   9.237   9.237   0.000   9.237   0.139   0.000   0.139   1.288   0.000   1.288   0.000   0.000  337.75   65.00    0.00   65.00    0.00    0.00   0.965   0.223   0.056   0.016   0.007   0.005   0.011   0.004   0.000
 2020 156    51  21.60  36.50  16.10   8.225   8.225   0.000   8.225   0.146   0.000   0.146   1.200   0.000   1.200   0.000   0.000  345.98   66.21    0.00   66.21    0.00    0.00   0.879   0.222   0.056   0.016   0.007   0.005   0.011   0.004   0.000
 2020 157    52  28.00  38.60  17.70  10.112  10.112   0.032  10.080   0.114   0.003   0.111   1.153   0.032   1.121   0.000   0.000  356.09   67.36    0.03   67.33    0.00    0.00   0.801   0.221   0.056   0.016   0.007   0.005   0.011   0.004   0.003
 2020 158    53  25.40  36.90  19.30  10.623  10.623   0.071  10.552   0.163   0.007   0.156   1.730   0.071   1.660   0.000   0.000  366.71   69.09    0.10   68.99    0.00    0.00   1.327   0.232   0.058   0.016   0.007   0.005   0.011   0.004   0.007
 2020 159    54  27.50  35.60  22.30  12.059  12.059   0.122  11.931   0.470   0.010   0.460   5.667   0.122   5.545   0.000   0.000  378.77   74.76    0.23   74.53    0.00    0.00   0.196   0.395   0.449   0.319   0.254   0.282   1.807   1.842   0.012
 2020 160    55  28.90  38.60  19.80  12.207  12.207   0.179  12.021   0.464   0.015   0.450   5.667   0.179   5.488   0.000   0.000  390.98   80.42    0.40   80.02    0.00    0.00   0.193   0.390   0.450   0.315   0.252   0.279   1.787   1.822   0.018
 2020 161    56   5.50  25.60   9.00   5.580   5.580   0.166   5.404   0.998   0.030   0.968   5.570   0.166   5.404   0.000   0.000  396.56   85.99    0.57   85.42    0.00    0.00   1.361   1.030   0.714   0.325   0.212   0.204   0.914   0.643   0.017
 2020 162    57  29.50  27.10   8.30   6.714   6.714   0.250   6.456   0.856   0.037   0.819   5.747   0.250   5.497   0.000   0.000  403.27   91.74    0.82   90.92    0.00    0.00   0.196   0.397   0.524   0.308   0.247   0.273   1.757   1.795   0.025
 2020 163    58  28.70  33.60  15.00   9.357   9.357   0.438   8.904   0.628   0.047   0.581   5.879   0.438   5.441   0.000   0.000  412.63   97.62    1.26   96.36    0.00    0.00   0.192   0.391   0.525   0.305   0.244   0.270   1.738   1.775   0.044
 2020 164    59  28.10  35.40  16.50   9.184   9.184   0.588   8.580   0.288   0.064   0.224   2.641   0.588   2.053   0.000   0.000  421.81  100.26    1.85   98.41    0.00    0.00   1.711   0.231   0.069   0.015   0.007   0.005   0.011   0.004   0.059
 2020 165    60  28.80  37.70  13.20  11.487  11.487   0.964  10.490   0.246   0.084   0.162   2.823   0.964   1.860   0.000   0.000  433.30  103.08    2.81  100.27    0.00    0.00   1.522   0.228   0.069   0.015   0.007   0.005   0.011   0.004   0.096
 2020 166    61  20.90  35.90  19.60  12.443  12.443   1.306  11.083   0.239   0.105   0.135   2.979   1.306   1.674   0.000   0.000  445.74  106.06    4.11  101.95    0.00    0.00   1.340   0.223   0.069   0.015   0.007   0.005   0.011   0.004   0.131
 2020 167    62  27.90  35.90  18.60  12.474  12.474   1.620  10.784   0.562   0.130   0.432   7.006   1.620   5.386   0.000   0.000  458.22  113.07    5.73  107.33    0.00    0.00   0.171   0.392   0.540   0.301   0.241   0.267   1.719   1.755   0.162
 2020 168    63  27.90  34.40  19.00  11.313  11.313   1.782   9.453   0.635   0.157   0.478   7.184   1.782   5.403   0.000   0.000  469.53  120.25    7.52  112.74    0.00    0.00   0.199   0.397   0.570   0.299   0.238   0.264   1.700   1.736   0.178
 2020 169    64  26.50  36.50  20.60  12.497  12.497   2.383  10.002   0.357   0.191   0.167   4.467   2.383   2.084   0.000   0.000  482.03  124.72    9.90  114.82    0.00    0.00   1.737   0.231   0.076   0.015   0.006   0.005   0.010   0.004   0.238
 2020 170    65  27.80  30.80  19.20   9.443   9.443   2.170   7.180   0.425   0.230   0.195   4.010   2.170   1.840   0.000   0.000  491.47  128.73   12.07  116.66    0.00    0.00   1.503   0.222   0.075   0.015   0.006   0.005   0.010   0.004   0.217
 2020 171    66  14.50  24.70  13.80   4.118   4.118   1.096   2.986   0.667   0.266   0.401   2.748   1.096   1.652   0.000   0.000  495.59  131.48   13.17  118.31    0.00    0.00   1.324   0.215   0.073   0.015   0.006   0.005   0.010   0.004   0.110
 2020 172    67  26.20  32.50  14.80   7.106   7.106   2.063   4.991   0.503   0.290   0.213   3.576   2.063   1.513   0.000   0.000  502.69  135.05   15.23  119.83    0.00    0.00   1.189   0.210   0.073   0.015   0.006   0.005   0.010   0.004   0.206
 2020 173    68  19.10  34.70  15.10   7.445   7.445   2.413   4.963   0.503   0.324   0.179   3.748   2.413   1.335   0.000   0.000  510.14  138.80   17.64  121.16    0.00    0.00   1.020   0.203   0.072   0.015   0.006   0.005   0.010   0.004   0.241
 2020 174    69  26.20  31.20  13.60   6.798   6.798   2.463   4.273   0.617   0.362   0.255   4.198   2.463   1.734   0.000   0.000  516.94  143.00   20.11  122.89    0.00    0.00   1.406   0.217   0.071   0.015   0.006   0.005   0.010   0.004   0.246
 2020 175    70  24.70  30.80  13.50   6.167   6.167   2.452   3.664   0.992   0.398   0.594   6.116   2.452   3.664   0.000   0.000  523.10  149.12   22.56  126.56    0.00    0.00   0.135   0.264   0.365   0.205   0.163   0.181   1.163   1.188   0.245
 2020 176    71  27.40  36.20  17.40   9.162   9.162   3.903   5.146   0.648   0.426   0.222   5.935   3.903   2.033   0.000   0.000  532.27  155.05   26.46  128.59    0.00    0.00   1.702   0.222   0.069   0.015   0.006   0.005   0.010   0.004   0.390
 2020 177    72  26.00  37.10  17.80  10.893  10.893   5.089   5.609   0.629   0.467   0.162   6.854   5.089   1.765   0.000   0.000  543.16  161.91   31.55  130.36    0.00    0.00   1.449   0.209   0.067   0.015   0.006   0.005   0.010   0.004   0.509
 2020 178    73  27.60  36.80  18.20   8.176   8.176   4.263   3.826   0.704   0.521   0.183   5.760   4.263   1.497   0.000   0.000  551.33  167.66   35.81  131.85    0.00    0.00   1.199   0.194   0.064   0.015   0.006   0.005   0.010   0.004   0.426
 2020 179    74  25.70  36.70  17.70   8.501   8.501   4.802   3.584   0.715   0.565   0.150   6.078   4.802   1.276   0.000   0.000  559.84  173.74   40.61  133.13    0.00    0.00   0.994   0.181   0.061   0.015   0.006   0.005   0.010   0.004   0.480
 2020 180    75  26.80  37.40  18.00   8.790   8.790   5.291   3.361   0.729   0.602   0.127   6.407   5.291   1.116   0.000   0.000  568.63  180.15   45.90  134.25    0.00    0.00   0.852   0.167   0.058   0.015   0.006   0.005   0.010   0.004   0.529
 2020 181    76  28.00  39.80  20.80  10.791  10.791   6.913   3.655   0.790   0.641   0.150   8.527   6.913   1.614   0.000   0.000  579.42  188.68   52.82  135.86    0.00    0.00   1.346   0.175   0.053   0.015   0.006   0.005   0.010   0.004   0.691
 2020 182    77  28.10  37.20  16.20   9.518   9.518   6.533   2.822   0.983   0.686   0.297   9.356   6.533   2.822   0.000   0.000  588.93  198.03   59.35  138.68    0.00    0.00   0.111   0.163   0.210   0.165   0.124   0.146   0.941   0.962   0.653
 2020 183    78  26.00  33.30  17.50   7.923   7.923   5.628   2.132   0.943   0.710   0.233   7.473   5.628   1.845   0.000   0.000  596.86  205.51   64.98  140.53    0.00    0.00   1.605   0.152   0.048   0.015   0.006   0.005   0.010   0.004   0.563
 2020 184    79  22.60  37.30  18.10   8.141   8.141   5.935   2.046   0.916   0.729   0.187   7.456   5.935   1.521   0.000   0.000  605.00  212.96   70.91  142.05    0.00    0.00   1.303   0.132   0.048   0.015   0.005   0.005   0.010   0.004   0.594
 2020 185    80  24.90  35.10  15.00   7.367   7.367   5.510   1.734   0.908   0.748   0.160   6.688   5.510   1.178   0.000   0.000  612.37  219.65   76.42  143.23    0.00    0.00   0.974   0.119   0.047   0.015   0.005   0.004   0.010   0.004   0.551
 2020 186    81  25.70  33.90  15.60   6.792   6.792   5.173   1.524   0.775   0.633   0.143   5.267   4.298   0.968   0.000   0.000  619.16  224.92   80.72  144.19    0.00    0.00   0.771   0.114   0.046   0.015   0.005   0.004   0.010   0.004   0.430
 2020 187    82  14.80  30.60  18.00   4.274   4.274   3.296   0.929   0.804   0.597   0.207   3.435   2.551   0.883   0.000   0.000  623.43  228.35   83.27  145.08    0.00    0.00   0.694   0.108   0.044   0.015   0.005   0.004   0.010   0.004   0.255
 2020 188    83  26.40  33.30  15.00   6.303   6.303   4.891   1.341   0.407   0.279   0.128   2.565   1.756   0.809   0.000   0.000  629.74  230.92   85.03  145.89    0.00    0.00   0.625   0.104   0.043   0.015   0.005   0.004   0.010   0.004   0.176
 2020 189    84  27.40  34.40  18.40   7.887   7.887   6.004   1.719   0.286   0.191   0.094   2.253   1.509   0.743   0.000   0.000  637.62  233.17   86.54  146.63    0.00    0.00   0.563   0.102   0.042   0.015   0.005   0.003   0.010   0.004   0.151
 2020 190    85  27.90  38.70  19.80  10.053  10.053   7.551   2.276   0.210   0.142   0.068   2.112   1.428   0.684   0.000   0.000  647.68  235.28   87.97  147.31    0.00    0.00   0.507   0.100   0.042   0.015   0.004   0.003   0.010   0.004   0.143
 2020 191    86  25.60  32.80  21.40   7.135   7.135   5.295   1.690   0.283   0.194   0.088   2.017   1.387   0.631   0.000   0.000  654.81  237.30   89.35  147.94    0.00    0.00   0.456   0.098   0.041   0.015   0.004   0.003   0.010   0.004   0.139
 2020 192    87  16.60  32.30  21.40   5.639   5.639   4.162   1.380   0.366   0.262   0.103   2.063   1.480   0.583   0.000   0.000  660.45  239.36   90.83  148.53    0.00    0.00   0.411   0.096   0.041   0.015   0.004   0.003   0.010   0.004   0.148
 2020 193    88  27.20  35.70  17.30   7.617   7.617   5.598   1.897   0.261   0.190   0.071   1.990   1.450   0.540   0.000   0.000  668.07  241.35   92.28  149.07    0.00    0.00   0.370   0.095   0.040   0.014   0.004   0.003   0.010   0.004   0.145
 2020 194    89  23.40  34.20  18.20   6.628   6.628   4.865   1.657   0.286   0.210   0.076   1.896   1.394   0.502   0.000   0.000  674.70  243.25   93.68  149.57    0.00    0.00   0.333   0.094   0.040   0.014   0.004   0.003   0.010   0.004   0.139
 2020 195    90  26.10  32.90  17.50   7.511   7.511   5.445   1.914   0.252   0.190   0.062   1.892   1.424   0.467   0.000   0.000  682.21  245.14   95.10  150.04    0.00    0.00   0.300   0.093   0.039   0.014   0.004   0.003   0.010   0.004   0.142
 2020 196    91  18.90  31.80  20.10   5.662   5.662   4.063   1.487   0.401   0.302   0.099   2.271   1.710   0.561   0.000   0.000  687.87  247.41   96.81  150.60    0.00    0.00   0.394   0.092   0.039   0.014   0.004   0.003   0.010   0.004   0.171
 2020 197    92  19.90  28.60  18.50   4.773   4.773   3.428   1.269   0.512   0.376   0.135   2.442   1.797   0.645   0.000   0.000  692.64  249.85   98.61  151.24    0.00    0.00   0.480   0.092   0.039   0.014   0.004   0.003   0.010   0.004   0.180
 2020 198    93  24.40  32.20  18.50   6.246   6.246   4.479   1.671   0.450   0.355   0.095   2.813   2.217   0.596   0.000   0.000  698.89  252.66  100.83  151.84    0.00    0.00   0.432   0.091   0.038   0.014   0.004   0.003   0.010   0.004   0.222
 2020 199    94  23.10  35.60  20.40   7.448   7.448   5.306   2.009   0.489   0.385   0.105   3.645   2.864   0.782   0.000   0.000  706.34  256.31  103.69  152.62    0.00    0.00   0.618   0.090   0.038   0.014   0.004   0.003   0.010   0.004   0.286
 2020 200    95  20.40  35.90  21.20   6.353   6.353   4.551   1.721   0.752   0.524   0.228   4.778   3.331   1.447   0.000   0.000  712.69  261.09  107.02  154.07    0.00    0.00   1.284   0.091   0.038   0.014   0.004   0.003   0.009   0.004   0.333
 2020 201    96  20.90  29.60  18.90   5.583   5.583   3.978   1.512   0.983   0.712   0.271   5.489   3.978   1.512   0.000   0.000  718.27  266.58  111.00  155.58    0.00    0.00   1.376   0.076   0.032   0.012   0.003   0.002   0.008   0.003   0.398
 2020 202    97  26.50  31.00  18.00   6.514   6.514   4.614   1.780   0.929   0.708   0.221   6.054   4.614   1.440   0.000   0.000  724.79  272.63  115.61  157.02    0.00    0.00   1.277   0.090   0.038   0.014   0.004   0.003   0.009   0.004   0.461
 2020 203    98  27.00  29.80  15.60   6.052   6.052   4.293   1.673   0.886   0.709   0.177   5.361   4.293   1.069   0.000   0.000  730.84  277.99  119.91  158.09    0.00    0.00   0.907   0.090   0.038   0.014   0.004   0.003   0.009   0.004   0.429
 2020 204    99  26.70  33.30  18.40   7.159   7.159   5.023   2.011   0.825   0.693   0.131   5.904   4.965   0.939   0.000   0.000  738.00  283.90  124.87  159.03    0.00    0.00   0.779   0.089   0.038   0.014   0.004   0.003   0.009   0.004   0.496
 2020 205   100  24.20  33.50  20.00   7.101   7.101   4.946   2.017   0.818   0.696   0.121   5.807   4.946   0.861   0.000   0.000  745.10  289.70  129.82  159.89    0.00    0.00   0.701   0.088   0.038   0.014   0.004   0.003   0.008   0.004   0.495
 2020 206   101  26.10  34.70  20.80   7.666   7.666   5.325   2.199   0.793   0.690   0.103   6.081   5.291   0.790   0.000   0.000  752.76  295.78  135.11  160.68    0.00    0.00   0.631   0.088   0.038   0.014   0.004   0.003   0.008   0.004   0.529
 2020 207   102  26.10  35.40  21.00   7.810   7.810   5.421   2.259   0.787   0.694   0.093   6.147   5.421   0.726   0.000   0.000  760.57  301.93  140.53  161.40    0.00    0.00   0.568   0.087   0.038   0.014   0.004   0.003   0.008   0.004   0.542
 2020 208   103  20.20  35.80  19.40   6.195   6.195   4.308   1.806   0.800   0.563   0.236   4.955   3.490   1.465   0.000   0.000  766.77  306.89  144.02  162.87    0.00    0.00   1.222   0.170   0.041   0.014   0.004   0.003   0.007   0.004   0.349
 2020 209   104  12.60  26.40  20.00   2.917   2.917   2.031   0.858   0.990   0.696   0.294   2.889   2.031   0.858   0.000   0.000  769.69  309.78  146.05  163.73    0.00    0.00   0.253   0.192   0.093   0.054   0.023   0.022   0.109   0.111   0.203
 2020 210   105  12.00  25.50  19.70   2.739   2.739   1.894   0.818   0.990   0.692   0.299   2.711   1.894   0.818   0.000   0.000  772.43  312.49  147.94  164.54    0.00    0.00   0.037   0.073   0.067   0.052   0.027   0.030   0.214   0.317   0.189
 2020 211   106  22.90  32.00  18.50   5.161   5.161   3.529   1.593   0.993   0.684   0.309   5.122   3.529   1.593   0.000   0.000  777.59  317.61  151.47  166.14    0.00    0.00   0.468   0.344   0.187   0.100   0.043   0.041   0.203   0.207   0.353
 2020 212   107  20.50  25.90  16.00   4.373   4.373   2.913   1.393   0.985   0.666   0.319   4.306   2.913   1.393   0.000   0.000  781.96  321.92  154.39  167.53    0.00    0.00   0.063   0.122   0.120   0.089   0.046   0.051   0.363   0.540   0.291
 2020 213   108  25.70  28.90  14.00   5.147   5.147   3.417   1.690   0.992   0.664   0.328   5.107   3.417   1.690   0.000   0.000  787.11  327.02  157.80  169.22    0.00    0.00   1.437   0.185   0.042   0.012   0.003   0.002   0.006   0.003   0.342
 2020 214   109  25.80  31.00  13.40   5.323   5.323   3.487   1.801   0.984   0.655   0.329   5.237   3.487   1.749   0.000   0.000  792.43  332.26  161.29  170.97    0.00    0.00   1.463   0.206   0.049   0.014   0.004   0.003   0.007   0.004   0.349
 2020 215   110  21.40  27.30  15.80   4.558   4.558   2.923   1.587   0.969   0.641   0.328   4.416   2.923   1.493   0.000   0.000  796.99  336.68  164.21  172.46    0.00    0.00   1.221   0.192   0.048   0.014   0.004   0.003   0.007   0.004   0.292
 2020 216   111  20.60  25.60  14.80   4.215   4.215   2.660   1.510   0.989   0.631   0.358   4.170   2.660   1.510   0.000   0.000  801.20  340.85  166.87  173.97    0.00    0.00   1.274   0.164   0.043   0.013   0.004   0.003   0.006   0.003   0.266
 2020 217   112  21.60  28.00  15.70   5.334   5.334   3.275   1.964   0.982   0.614   0.368   5.240   3.275   1.964   0.000   0.000  806.54  346.09  170.15  175.94    0.00    0.00   1.713   0.172   0.047   0.014   0.004   0.003   0.007   0.004   0.328
 2020 218   113  24.30  29.00  14.00   5.336   5.336   3.258   2.019   0.948   0.611   0.337   5.057   3.258   1.798   0.000   0.000  811.87  351.14  173.41  177.73    0.00    0.00   1.558   0.161   0.047   0.014   0.004   0.003   0.007   0.004   0.326
 2020 219   114  17.00  28.20  18.90   4.259   4.259   2.543   1.654   0.985   0.597   0.388   4.197   2.543   1.654   0.000   0.000  816.13  355.34  175.95  179.39    0.00    0.00   1.436   0.149   0.041   0.013   0.003   0.003   0.006   0.003   0.254
 2020 220   115  24.70  31.80  20.00   5.441   5.441   3.233   2.167   0.956   0.594   0.362   5.203   3.233   1.970   0.000   0.000  821.57  360.54  179.18  181.36    0.00    0.00   1.716   0.177   0.046   0.014   0.004   0.003   0.007   0.004   0.323
 2020 221   116  24.60  34.80  15.40   6.358   6.358   3.704   2.595   0.849   0.583   0.266   5.396   3.704   1.692   0.000   0.000  827.93  365.94  182.89  183.05    0.00    0.00   1.451   0.163   0.046   0.014   0.004   0.003   0.007   0.004   0.370
 2020 222   117  24.10  35.20  18.90   7.366   7.366   4.206   3.077   0.764   0.571   0.193   5.630   4.206   1.424   0.000   0.000  835.30  371.57  187.09  184.47    0.00    0.00   1.199   0.148   0.046   0.014   0.004   0.003   0.007   0.004   0.421
 2020 223   118  21.50  33.00  16.90   5.555   5.555   3.129   2.377   0.773   0.563   0.209   4.292   3.129   1.164   0.000   0.000  840.85  375.86  190.22  185.64    0.00    0.00   0.957   0.131   0.045   0.014   0.004   0.003   0.007   0.004   0.313
 2020 224   119  23.90  32.10  14.00   6.093   6.093   3.355   2.669   0.715   0.551   0.164   4.354   3.355   0.999   0.000   0.000  846.94  380.22  193.58  186.64    0.00    0.00   0.804   0.119   0.045   0.014   0.004   0.003   0.007   0.004   0.336
 2020 225   120  20.60  30.80  18.00   5.231   5.231   2.830   2.345   0.618   0.447   0.170   3.231   2.339   0.892   0.000   0.000  852.18  383.45  195.92  187.53    0.00    0.00   0.707   0.110   0.044   0.014   0.004   0.003   0.007   0.004   0.234
 2020 226   121  22.50  32.50  20.40   5.150   5.150   2.755   2.361   0.523   0.364   0.158   2.691   1.875   0.816   0.000   0.000  857.33  386.14  197.79  188.35    0.00    0.00   0.637   0.106   0.043   0.014   0.004   0.003   0.007   0.004   0.188
 2020 227   122  18.80  32.70  17.80   4.736   4.736   2.484   2.220   0.494   0.336   0.158   2.339   1.590   0.749   0.000   0.000  862.06  388.48  199.38  189.09    0.00    0.00   0.573   0.103   0.042   0.014   0.004   0.003   0.006   0.004   0.159
 2020 228   123  20.50  31.00  19.30   4.836   4.836   2.480   2.316   0.428   0.285   0.142   2.069   1.380   0.689   0.000   0.000  866.90  390.55  200.76  189.78    0.00    0.00   0.516   0.100   0.041   0.014   0.004   0.003   0.006   0.004   0.138
 2020 229   124  21.50  31.40  18.90   5.491   5.491   2.746   2.686   0.363   0.222   0.141   1.995   1.220   0.774   0.000   0.000  872.39  392.54  201.98  190.56    0.00    0.00   0.604   0.099   0.041   0.014   0.004   0.003   0.006   0.004   0.122
 2020 230   125  25.00  32.50  14.00   5.639   5.639   2.785   2.817   0.459   0.193   0.265   2.587   1.090   1.496   0.000   0.000  878.03  395.13  203.07  192.05    0.00    0.00   1.308   0.117   0.040   0.014   0.004   0.003   0.006   0.004   0.109
 2020 231   126  23.60  32.80  15.00   6.011   6.011   2.891   3.067   0.991   0.481   0.510   5.958   2.891   3.067   0.000   0.000  884.04  401.09  205.96  195.12    0.00    0.00   0.151   0.175   0.229   0.211   0.111   0.122   0.778   1.290   0.289
 2020 232   127  18.70  31.40  17.70   5.406   5.406   2.540   2.812   0.812   0.470   0.342   4.388   2.540   1.848   0.000   0.000  889.44  405.47  208.50  196.97    0.00    0.00   1.652   0.126   0.039   0.014   0.004   0.003   0.006   0.004   0.254
 2020 233   128  22.80  31.50  15.20   5.696   5.696   2.624   3.021   0.728   0.461   0.267   4.145   2.624   1.521   0.000   0.000  895.14  409.62  211.13  198.49    0.00    0.00   1.331   0.120   0.039   0.014   0.004   0.003   0.006   0.004   0.262
 2020 234   129  20.10  31.40  17.30   5.270   5.270   2.381   2.849   0.679   0.452   0.227   3.578   2.381   1.197   0.000   0.000  900.41  413.20  213.51  199.69    0.00    0.00   1.011   0.116   0.039   0.014   0.004   0.003   0.006   0.004   0.238
 2020 235   130  21.20  33.80  15.50   5.652   5.652   2.498   3.114   0.412   0.246   0.166   2.329   1.392   0.938   0.000   0.000  906.06  415.52  214.90  200.62    0.00    0.00   0.756   0.112   0.039   0.014   0.004   0.003   0.006   0.004   0.139
 2020 236   131  21.10  34.40  17.50   6.131   6.131   2.642   3.440   0.313   0.173   0.140   1.920   1.063   0.857   0.000   0.000  912.19  417.44  215.96  201.48    0.00    0.00   0.681   0.107   0.039   0.014   0.004   0.003   0.006   0.004   0.106
 2020 237   132  22.50  35.10  16.40   6.964   6.964   2.924   3.979   0.340   0.130   0.210   2.371   0.908   1.463   0.000   0.000  919.16  419.82  216.87  202.94    0.00    0.00   1.272   0.122   0.038   0.014   0.004   0.003   0.006   0.004   0.091
 2020 238   133  21.80  33.60  18.90   7.160   7.160   2.921   4.171   0.953   0.405   0.548   6.820   2.896   3.924   0.000   0.000  926.32  426.64  219.77  206.87    0.00    0.00   0.196   0.230   0.285   0.271   0.142   0.157   0.978   1.664   0.290
 2020 239   134  22.40  34.80  13.50   6.874   6.874   2.742   4.072   0.668   0.399   0.269   4.590   2.742   1.848   0.000   0.000  933.19  431.23  222.51  208.72    0.00    0.00   1.654   0.126   0.038   0.014   0.004   0.003   0.006   0.004   0.274
 2020 240   135  22.20  35.50  16.60   6.218   6.218   2.430   3.746   0.632   0.391   0.242   3.932   2.430   1.502   0.000   0.000  939.41  435.16  224.94  210.22    0.00    0.00   1.315   0.120   0.038   0.014   0.004   0.003   0.006   0.004   0.243
 2020 241   136  22.00  35.50  17.20   6.286   6.286   2.390   3.850   0.654   0.380   0.274   4.114   2.390   1.724   0.000   0.000  945.69  439.27  227.33  211.94    0.00    0.00   1.466   0.185   0.044   0.014   0.004   0.003   0.006   0.004   0.239
 2020 242   137  11.50  24.60  17.20   2.622   2.622   0.975   1.632   0.994   0.372   0.622   2.607   0.975   1.632   0.000   0.000  948.32  441.88  228.31  213.57    0.00    0.00   0.076   0.159   0.152   0.105   0.055   0.061   0.377   0.646   0.098
 2020 243   138  19.90  33.30  16.00   4.758   4.758   1.730   3.008   0.996   0.364   0.632   4.738   1.730   3.008   0.000   0.000  953.07  446.62  230.04  216.58    0.00    0.00   0.144   0.284   0.291   0.193   0.102   0.112   0.694   1.189   0.173
 2020 244   139  22.40  24.60  14.00   4.408   4.408   1.541   2.830   0.992   0.350   0.642   4.371   1.541   2.830   0.000   0.000  957.48  450.99  231.58  219.41    0.00    0.00   0.830   0.622   0.420   0.167   0.072   0.069   0.298   0.352   0.154
 2020 245   140  13.90  25.80  15.20   3.150   3.150   1.082   2.052   0.995   0.344   0.651   3.134   1.082   2.052   0.000   0.000  960.63  454.12  232.66  221.46    0.00    0.00   0.095   0.191   0.260   0.127   0.067   0.074   0.456   0.783   0.108
 2020 246   141  22.80  31.00  13.90   4.633   4.633   1.556   3.060   0.997   0.336   0.661   4.617   1.556   3.060   0.000   0.000  965.27  458.74  234.22  224.52    0.00    0.00   0.140   0.282   0.390   0.189   0.100   0.110   0.681   1.168   0.156
 2020 247   142  22.90  26.30  13.20   4.610   4.610   1.490   3.088   0.766   0.323   0.443   3.533   1.490   2.043   0.000   0.000  969.88  462.27  235.71  226.57    0.00    0.00   1.715   0.229   0.070   0.013   0.004   0.003   0.006   0.003   0.149
 2020 248   143  22.30  31.60   8.20   4.673   4.673   1.485   3.171   0.712   0.318   0.394   3.326   1.485   1.841   0.000   0.000  974.55  465.60  237.19  228.41    0.00    0.00   1.519   0.224   0.069   0.013   0.004   0.003   0.006   0.003   0.148
 2020 249   144  21.30  34.00  15.50   5.807   5.807   1.783   3.991   0.593   0.307   0.286   3.441   1.783   1.659   0.000   0.000  980.36  469.04  238.97  230.07    0.00    0.00   1.343   0.219   0.068   0.013   0.004   0.003   0.006   0.003   0.178
 2020 250   145  19.40  36.00  19.60   6.279   6.279   1.878   4.369   0.536   0.299   0.237   3.366   1.878   1.488   0.000   0.000  986.63  472.41  240.85  231.56    0.00    0.00   1.179   0.214   0.067   0.013   0.004   0.003   0.006   0.003   0.188
 2020 251   146  19.30  34.00  14.00   5.459   5.459   1.589   3.844   0.622   0.291   0.331   3.395   1.589   1.806   0.000   0.000  992.09  475.80  242.44  233.36    0.00    0.00   1.481   0.228   0.068   0.013   0.004   0.003   0.006   0.003   0.159
 2020 252   147   3.30  16.00   2.80   2.769   2.769   0.757   1.972   0.986   0.274   0.712   2.730   0.757   1.972   0.000   0.000  994.86  478.53  243.20  235.33    0.00    0.00   0.566   0.435   0.332   0.111   0.048   0.046   0.198   0.235   0.076
 2020 253   148   3.70   5.20   1.70   0.840   0.840   0.211   0.619   0.988   0.251   0.737   0.830   0.211   0.619   0.000   0.000  995.70  479.36  243.41  235.95    0.00    0.00   0.175   0.133   0.109   0.044   0.014   0.014   0.060   0.071   0.021
 2020 254   149   9.20  12.90   4.70   1.674   1.674   0.360   1.306   0.995   0.215   0.780   1.666   0.360   1.306   0.000   0.000  997.38  481.03  243.77  237.26    0.00    0.00   0.360   0.269   0.230   0.117   0.030   0.029   0.124   0.147   0.036
 2020 255   150  20.10  22.00   8.90   3.321   3.321   0.701   2.610   0.997   0.211   0.786   3.311   0.701   2.610   0.000   0.000   1001.    484.    244.    240.      0.      0.   0.116   0.231   0.344   0.272   0.079   0.088   0.544   0.936   0.070
 2020 256   151  21.50  28.60   8.80   4.266   4.266   0.878   3.376   0.997   0.206   0.791   4.254   0.878   3.376   0.000   0.000   1005.    489.    245.    243.      0.      0.   0.149   0.297   0.442   0.360   0.103   0.113   0.703   1.209   0.088
 2020 257   152  21.50  29.00   5.90   3.631   3.631   0.734   2.892   0.778   0.202   0.575   2.823   0.734   2.089   0.000   0.000   1009.    491.    246.    245.      0.      0.   1.743   0.231   0.076   0.024   0.004   0.003   0.006   0.003   0.073
 2020 258   153  18.50  27.30   7.90   3.466   3.466   0.682   2.778   0.746   0.197   0.549   2.585   0.682   1.903   0.000   0.000   1012.    494.    247.    247.      0.      0.   1.560   0.228   0.076   0.024   0.004   0.003   0.006   0.003   0.068
 2020 259   154  19.30  28.20   8.60   4.035   4.035   0.770   3.254   0.997   0.191   0.806   4.024   0.770   3.254   0.000   0.000   1016.    498.    248.    250.      0.      0.   0.135   0.293   0.433   0.358   0.098   0.108   0.672   1.156   0.077
 2020 260   155  18.60  27.70   7.40   3.668   3.668   0.685   2.975   0.998   0.187   0.811   3.660   0.685   2.975   0.000   0.000   1020.    502.    248.    253.      0.      0.   0.800   0.603   0.512   0.325   0.066   0.064   0.277   0.328   0.068
 2020 261   156  18.10  26.90   8.10   3.437   3.437   0.627   2.804   0.998   0.182   0.816   3.430   0.627   2.804   0.000   0.000   1023.    505.    249.    256.      0.      0.   0.121   0.247   0.367   0.343   0.083   0.092   0.570   0.982   0.063
 2020 262   157  16.80  27.70   9.00   4.234   4.234   0.745   3.473   0.664   0.176   0.488   2.810   0.745   2.065   0.000   0.000   1027.    508.    250.    258.      0.      0.   1.713   0.233   0.077   0.028   0.004   0.003   0.006   0.003   0.075
 2020 263   158  17.20  28.20   9.60   5.345   5.345   0.908   4.409   0.522   0.170   0.352   2.790   0.908   1.882   0.000   0.000   1033.    511.    250.    260.      0.      0.   1.533   0.230   0.076   0.027   0.004   0.003   0.006   0.003   0.091
 2020 264   159  18.20  30.30  14.60   6.118   6.118   1.013   5.073   0.446   0.166   0.280   2.727   1.013   1.714   0.000   0.000   1039.    513.    252.    262.      0.      0.   1.369   0.227   0.076   0.027   0.004   0.003   0.006   0.003   0.101
 2020 265   160  18.20  29.10  10.80   4.915   4.915   0.800   4.096   0.996   0.163   0.833   4.896   0.800   4.096   0.000   0.000   1044.    518.    252.    266.      0.      0.   0.161   0.368   0.540   0.508   0.121   0.134   0.831   1.433   0.080
 2020 266   161  18.70  28.80   9.70   4.423   4.423   0.705   3.704   0.997   0.159   0.837   4.409   0.705   3.704   0.000   0.000   1048.    523.    253.    270.      0.      0.   0.993   0.748   0.630   0.434   0.085   0.078   0.336   0.400   0.071
 2020 267   162  17.40  29.20  13.00   3.997   3.997   0.624   3.363   0.997   0.155   0.841   3.985   0.621   3.363   0.000   0.000   1052.    527.    254.    273.      0.      0.   0.144   0.296   0.438   0.435   0.109   0.108   0.673   1.161   0.062
 2020 268   163  18.50  34.60  10.60   4.123   4.123   0.631   3.486   0.648   0.153   0.495   2.673   0.631   2.041   0.000   0.000   1056.    529.    254.    275.      0.      0.   1.690   0.231   0.076   0.029   0.004   0.003   0.005   0.003   0.063
 2020 269   164  18.70  36.80  10.50   5.207   5.207   0.776   4.421   0.506   0.149   0.358   2.637   0.776   1.862   0.000   0.000   1062.    532.    255.    277.      0.      0.   1.514   0.228   0.075   0.029   0.004   0.003   0.005   0.003   0.078
 2020 270   165  16.50  34.10  11.30   4.257   4.257   0.622   3.628   0.545   0.146   0.399   2.320   0.622   1.698   0.000   0.000   1066.    534.    256.    279.      0.      0.   1.354   0.226   0.075   0.029   0.004   0.003   0.005   0.003   0.062
 2020 271   166  15.80  21.70  12.50   5.134   5.134   0.716   4.390   0.442   0.139   0.302   2.268   0.716   1.552   0.000   0.000   1071.    537.    256.    280.      0.      0.   1.211   0.223   0.075   0.029   0.004   0.003   0.005   0.003   0.072
 2020 272   167  19.00  20.10   3.50   4.245   4.245   0.596   3.631   0.475   0.140   0.334   2.015   0.596   1.419   0.000   0.000   1075.    539.    257.    282.      0.      0.   1.081   0.220   0.074   0.028   0.004   0.003   0.005   0.003   0.060
 2020 273   168  18.60  29.00   3.10   4.301   4.301   0.612   3.678   0.445   0.142   0.303   1.913   0.612   1.301   0.000   0.000   1079.    541.    258.    283.      0.      0.   0.966   0.218   0.074   0.028   0.004   0.003   0.005   0.003   0.061
 2020 274   169  17.60  26.20   6.00   4.174   4.174   0.592   3.570   0.429   0.142   0.287   1.791   0.592   1.199   0.000   0.000   1084.    542.    258.    284.      0.      0.   0.867   0.215   0.073   0.028   0.004   0.003   0.005   0.003   0.059
 2020 275   170  17.70  20.40   2.80   3.073   3.073   0.437   2.628   0.503   0.142   0.361   1.545   0.436   1.109   0.000   0.000   1087.    544.    259.    285.      0.      0.   0.780   0.213   0.073   0.028   0.004   0.003   0.005   0.003   0.044
 2020 276   171  17.10  26.80   2.50   3.497   3.497   0.499   2.991   0.437   0.143   0.294   1.527   0.499   1.029   0.000   0.000   1090.    545.    259.    286.      0.      0.   0.703   0.211   0.072   0.028   0.004   0.003   0.005   0.003   0.050
 2020 277   172  15.50  22.00   4.00   3.711   3.711   0.524   3.174   0.399   0.141   0.258   1.479   0.524   0.956   0.000   0.000   1094.    547.    260.    287.      0.      0.   0.632   0.208   0.072   0.028   0.004   0.003   0.005   0.003   0.052

*DSSAT Cropping System Model Ver. 4.7.5.035 -develop  JUN 14, 2021 09:08:55

*RUN   2        : 20 IRRIG, PETPEN KCB..... MZCER047 KSRT2001    2
 MODEL          : MZCER047 - Maize
 EXPERIMENT     : KSRT2001 SB ARM 2020 KS, IRRIGATED
 DATA PATH      :
 TREATMENT  2   : 20 IRRIG, PETPEN KCB..... MZCER047
  
!                                                                                                                                                                                        Soil evaporation (mm/d) by soil depth (cm):
!                                                                                                                                                                                        0-5    5-15   15-29   29-43   43-53   53-64  64-132 132-201
@YEAR DOY   DAS   SRAA  TMAXA  TMINA    REFA    EOAA    EOPA    EOSA    KCAA    KCBA    KEAA    ETAA    EPAA    ESAA    EFAA    EMAA    EOAC    ETAC    EPAC    ESAC    EFAC    EMAC    ES1D    ES2D    ES3D    ES4D    ES5D    ES6D    ES7D    ES8D   TRWUD
 2020 106     1  24.00  17.90  -7.20   4.818   0.000   0.000   0.000   0.000   0.000   0.000   0.000   0.000   0.000   0.000   0.000    0.00    0.00    0.00    0.00    0.00    0.00   0.000   0.000   0.000   0.000   0.000   0.000   0.000   0.000   0.000
 2020 107     2  23.60  16.50  -2.00   5.199   0.000   0.000   0.000   0.000   0.000   0.000   0.000   0.000   0.000   0.000   0.000    0.00    0.00    0.00    0.00    0.00    0.00   0.000   0.000   0.000   0.000   0.000   0.000   0.000   0.000   0.000
 2020 108     3  23.70  13.80  -2.00   4.020   0.000   0.000   0.000   0.000   0.000   0.000   0.000   0.000   0.000   0.000   0.000    0.00    0.00    0.00    0.00    0.00    0.00   0.000   0.000   0.000   0.000   0.000   0.000   0.000   0.000   0.000
 2020 109     4  19.70  23.60  -1.10   6.544   0.000   0.000   0.000   0.000   0.000   0.000   0.000   0.000   0.000   0.000   0.000    0.00    0.00    0.00    0.00    0.00    0.00   0.000   0.000   0.000   0.000   0.000   0.000   0.000   0.000   0.000
 2020 110     5  23.20  21.80   1.30   5.594   0.000   0.000   0.000   0.000   0.000   0.000   0.000   0.000   0.000   0.000   0.000    0.00    0.00    0.00    0.00    0.00    0.00   0.000   0.000   0.000   0.000   0.000   0.000   0.000   0.000   0.000
 2020 111     6  24.00  23.50   1.70   5.622   0.000   0.000   0.000   0.000   0.000   0.000   0.000   0.000   0.000   0.000   0.000    0.00    0.00    0.00    0.00    0.00    0.00   0.000   0.000   0.000   0.000   0.000   0.000   0.000   0.000   0.000
 2020 112     7  12.80  19.40   2.50   3.706   0.000   0.000   0.000   0.000   0.000   0.000   0.000   0.000   0.000   0.000   0.000    0.00    0.00    0.00    0.00    0.00    0.00   0.000   0.000   0.000   0.000   0.000   0.000   0.000   0.000   0.000
 2020 113     8  15.20  22.00   5.00   4.309   0.000   0.000   0.000   0.000   0.000   0.000   0.000   0.000   0.000   0.000   0.000    0.00    0.00    0.00    0.00    0.00    0.00   0.000   0.000   0.000   0.000   0.000   0.000   0.000   0.000   0.000
 2020 114     9  22.00  27.10   3.50   6.343   0.000   0.000   0.000   0.000   0.000   0.000   0.000   0.000   0.000   0.000   0.000    0.00    0.00    0.00    0.00    0.00    0.00   0.000   0.000   0.000   0.000   0.000   0.000   0.000   0.000   0.000
 2020 115    10  16.50  17.60   4.30   4.888   0.000   0.000   0.000   0.000   0.000   0.000   0.000   0.000   0.000   0.000   0.000    0.00    0.00    0.00    0.00    0.00    0.00   0.000   0.000   0.000   0.000   0.000   0.000   0.000   0.000   0.000
 2020 116    11  22.50  20.50   1.40   5.300   0.000   0.000   0.000   0.000   0.000   0.000   0.000   0.000   0.000   0.000   0.000    0.00    0.00    0.00    0.00    0.00    0.00   0.000   0.000   0.000   0.000   0.000   0.000   0.000   0.000   0.000
 2020 117    12  22.90  28.10   2.90   7.854   0.000   0.000   0.000   0.000   0.000   0.000   0.000   0.000   0.000   0.000   0.000    0.00    0.00    0.00    0.00    0.00    0.00   0.000   0.000   0.000   0.000   0.000   0.000   0.000   0.000   0.000
 2020 118    13  26.30  29.70   5.00   7.529   0.000   0.000   0.000   0.000   0.000   0.000   0.000   0.000   0.000   0.000   0.000    0.00    0.00    0.00    0.00    0.00    0.00   0.000   0.000   0.000   0.000   0.000   0.000   0.000   0.000   0.000
 2020 119    14  25.10  28.00   6.70   8.243   0.000   0.000   0.000   0.000   0.000   0.000   0.000   0.000   0.000   0.000   0.000    0.00    0.00    0.00    0.00    0.00    0.00   0.000   0.000   0.000   0.000   0.000   0.000   0.000   0.000   0.000
 2020 120    15  27.50  23.70   4.70   8.160   0.000   0.000   0.000   0.000   0.000   0.000   0.000   0.000   0.000   0.000   0.000    0.00    0.00    0.00    0.00    0.00    0.00   0.000   0.000   0.000   0.000   0.000   0.000   0.000   0.000   0.000
 2020 121    16  22.60  32.60   1.20   9.729   0.000   0.000   0.000   0.000   0.000   0.000   0.000   0.000   0.000   0.000   0.000    0.00    0.00    0.00    0.00    0.00    0.00   0.000   0.000   0.000   0.000   0.000   0.000   0.000   0.000   0.000
 2020 122    17  24.70  34.00  10.00   9.294   0.000   0.000   0.000   0.000   0.000   0.000   0.000   0.000   0.000   0.000   0.000    0.00    0.00    0.00    0.00    0.00    0.00   0.000   0.000   0.000   0.000   0.000   0.000   0.000   0.000   0.000
 2020 123    18  25.90  25.50  12.00   7.783   0.000   0.000   0.000   0.000   0.000   0.000   0.000   0.000   0.000   0.000   0.000    0.00    0.00    0.00    0.00    0.00    0.00   0.000   0.000   0.000   0.000   0.000   0.000   0.000   0.000   0.000
 2020 124    19  26.40  26.80   6.30   7.651   0.000   0.000   0.000   0.000   0.000   0.000   0.000   0.000   0.000   0.000   0.000    0.00    0.00    0.00    0.00    0.00    0.00   0.000   0.000   0.000   0.000   0.000   0.000   0.000   0.000   0.000
 2020 125    20  20.10  26.60  11.90   6.480   0.000   0.000   0.000   0.000   0.000   0.000   0.000   0.000   0.000   0.000   0.000    0.00    0.00    0.00    0.00    0.00    0.00   0.000   0.000   0.000   0.000   0.000   0.000   0.000   0.000   0.000
 2020 126    21  27.90  25.00   6.50   6.936   0.000   0.000   0.000   0.000   0.000   0.000   0.000   0.000   0.000   0.000   0.000    0.00    0.00    0.00    0.00    0.00    0.00   0.000   0.000   0.000   0.000   0.000   0.000   0.000   0.000   0.000
 2020 127    22  26.50  22.40   5.80   6.833   0.000   0.000   0.000   0.000   0.000   0.000   0.000   0.000   0.000   0.000   0.000    0.00    0.00    0.00    0.00    0.00    0.00   0.000   0.000   0.000   0.000   0.000   0.000   0.000   0.000   0.000
 2020 128    23  26.20  27.50   8.60   9.088   0.000   0.000   0.000   0.000   0.000   0.000   0.000   0.000   0.000   0.000   0.000    0.00    0.00    0.00    0.00    0.00    0.00   0.000   0.000   0.000   0.000   0.000   0.000   0.000   0.000   0.000
 2020 129    24  27.40  17.10   4.50   5.823   0.000   0.000   0.000   0.000   0.000   0.000   0.000   0.000   0.000   0.000   0.000    0.00    0.00    0.00    0.00    0.00    0.00   0.000   0.000   0.000   0.000   0.000   0.000   0.000   0.000   0.000
 2020 130    25  27.20  22.10   3.50   7.415   0.000   0.000   0.000   0.000   0.000   0.000   0.000   0.000   0.000   0.000   0.000    0.00    0.00    0.00    0.00    0.00    0.00   0.000   0.000   0.000   0.000   0.000   0.000   0.000   0.000   0.000
 2020 131    26  27.10  18.30   4.10   6.275   0.000   0.000   0.000   0.000   0.000   0.000   0.000   0.000   0.000   0.000   0.000    0.00    0.00    0.00    0.00    0.00    0.00   0.000   0.000   0.000   0.000   0.000   0.000   0.000   0.000   0.000
 2020 132    27   3.30   8.90   2.80   1.368   0.000   0.000   0.000   0.000   0.000   0.000   0.000   0.000   0.000   0.000   0.000    0.00    0.00    0.00    0.00    0.00    0.00   0.000   0.000   0.000   0.000   0.000   0.000   0.000   0.000   0.000
 2020 133    28   5.40   8.20   2.60   1.364   0.000   0.000   0.000   0.000   0.000   0.000   0.000   0.000   0.000   0.000   0.000    0.00    0.00    0.00    0.00    0.00    0.00   0.000   0.000   0.000   0.000   0.000   0.000   0.000   0.000   0.000
 2020 134    29  17.80  22.10   6.70   5.278   0.000   0.000   0.000   0.000   0.000   0.000   0.000   0.000   0.000   0.000   0.000    0.00    0.00    0.00    0.00    0.00    0.00   0.000   0.000   0.000   0.000   0.000   0.000   0.000   0.000   0.000
 2020 135    30  20.60  26.70   9.30   6.426   0.000   0.000   0.000   0.000   0.000   0.000   0.000   0.000   0.000   0.000   0.000    0.00    0.00    0.00    0.00    0.00    0.00   0.000   0.000   0.000   0.000   0.000   0.000   0.000   0.000   0.000
 2020 136    31  24.10  26.00  12.90   6.290   0.000   0.000   0.000   0.000   0.000   0.000   0.000   0.000   0.000   0.000   0.000    0.00    0.00    0.00    0.00    0.00    0.00   0.000   0.000   0.000   0.000   0.000   0.000   0.000   0.000   0.000
 2020 137    32  22.90  24.30  12.70   5.522   0.000   0.000   0.000   0.000   0.000   0.000   0.000   0.000   0.000   0.000   0.000    0.00    0.00    0.00    0.00    0.00    0.00   0.000   0.000   0.000   0.000   0.000   0.000   0.000   0.000   0.000
 2020 138    33  27.60  25.40  10.10   6.878   0.000   0.000   0.000   0.000   0.000   0.000   0.000   0.000   0.000   0.000   0.000    0.00    0.00    0.00    0.00    0.00    0.00   0.000   0.000   0.000   0.000   0.000   0.000   0.000   0.000   0.000
 2020 139    34  26.90  28.00   7.00   7.381   0.000   0.000   0.000   0.000   0.000   0.000   0.000   0.000   0.000   0.000   0.000    0.00    0.00    0.00    0.00    0.00    0.00   0.000   0.000   0.000   0.000   0.000   0.000   0.000   0.000   0.000
 2020 140    35  23.70  28.80  11.00   7.242   0.000   0.000   0.000   0.000   0.000   0.000   0.000   0.000   0.000   0.000   0.000    0.00    0.00    0.00    0.00    0.00    0.00   0.000   0.000   0.000   0.000   0.000   0.000   0.000   0.000   0.000
 2020 141    36  20.80  26.00  11.30   6.536   0.000   0.000   0.000   0.000   0.000   0.000   0.000   0.000   0.000   0.000   0.000    0.00    0.00    0.00    0.00    0.00    0.00   0.000   0.000   0.000   0.000   0.000   0.000   0.000   0.000   0.000
 2020 142    37  16.10  27.40  12.20   6.155   0.000   0.000   0.000   0.000   0.000   0.000   0.000   0.000   0.000   0.000   0.000    0.00    0.00    0.00    0.00    0.00    0.00   0.000   0.000   0.000   0.000   0.000   0.000   0.000   0.000   0.000
 2020 143    38  28.00  24.80  10.50   6.814   0.000   0.000   0.000   0.000   0.000   0.000   0.000   0.000   0.000   0.000   0.000    0.00    0.00    0.00    0.00    0.00    0.00   0.000   0.000   0.000   0.000   0.000   0.000   0.000   0.000   0.000
 2020 144    39  22.50  33.10  12.10   8.923   0.000   0.000   0.000   0.000   0.000   0.000   0.000   0.000   0.000   0.000   0.000    0.00    0.00    0.00    0.00    0.00    0.00   0.000   0.000   0.000   0.000   0.000   0.000   0.000   0.000   0.000
 2020 145    40  23.60  26.80  12.80   7.403   0.000   0.000   0.000   0.000   0.000   0.000   0.000   0.000   0.000   0.000   0.000    0.00    0.00    0.00    0.00    0.00    0.00   0.000   0.000   0.000   0.000   0.000   0.000   0.000   0.000   0.000
 2020 146    41  15.70  19.40   8.60   4.682   0.000   0.000   0.000   0.000   0.000   0.000   0.000   0.000   0.000   0.000   0.000    0.00    0.00    0.00    0.00    0.00    0.00   0.000   0.000   0.000   0.000   0.000   0.000   0.000   0.000   0.000
 2020 147    42  23.60  25.60   6.20   6.199   0.000   0.000   0.000   0.000   0.000   0.000   0.000   0.000   0.000   0.000   0.000    0.00    0.00    0.00    0.00    0.00    0.00   0.000   0.000   0.000   0.000   0.000   0.000   0.000   0.000   0.000
 2020 148    43  15.40  24.30   8.90   5.118   0.000   0.000   0.000   0.000   0.000   0.000   0.000   0.000   0.000   0.000   0.000    0.00    0.00    0.00    0.00    0.00    0.00   0.000   0.000   0.000   0.000   0.000   0.000   0.000   0.000   0.000
 2020 149    44  26.90  27.60  10.10   7.601   0.000   0.000   0.000   0.000   0.000   0.000   0.000   0.000   0.000   0.000   0.000    0.00    0.00    0.00    0.00    0.00    0.00   0.000   0.000   0.000   0.000   0.000   0.000   0.000   0.000   0.000
 2020 150    45  27.90  31.00  12.40   8.871   0.000   0.000   0.000   0.000   0.000   0.000   0.000   0.000   0.000   0.000   0.000    0.00    0.00    0.00    0.00    0.00    0.00   0.000   0.000   0.000   0.000   0.000   0.000   0.000   0.000   0.000
 2020 151    46  27.80  35.20  16.20  12.008   0.000   0.000   0.000   0.000   0.000   0.000   0.000   0.000   0.000   0.000   0.000    0.00    0.00    0.00    0.00    0.00    0.00   0.000   0.000   0.000   0.000   0.000   0.000   0.000   0.000   0.000
 2020 152    47  28.10  34.30  17.70  11.978   0.000   0.000   0.000   0.000   0.000   0.000   0.000   0.000   0.000   0.000   0.000    0.00    0.00    0.00    0.00    0.00    0.00   0.000   0.000   0.000   0.000   0.000   0.000   0.000   0.000   0.000
 2020 153    48  27.10  34.80  17.00  11.936   0.000   0.000   0.000   0.000   0.000   0.000   0.000   0.000   0.000   0.000   0.000    0.00    0.00    0.00    0.00    0.00    0.00   0.000   0.000   0.000   0.000   0.000   0.000   0.000   0.000   0.000
 2020 154    49  27.80  37.00  16.70  10.228   0.000   0.000   0.000   0.000   0.000   0.000   0.000   0.000   0.000   0.000   0.000    0.00    0.00    0.00    0.00    0.00    0.00   0.000   0.000   0.000   0.000   0.000   0.000   0.000   0.000   0.000
 2020 155    50  27.90  35.40  17.80   9.413   0.000   0.000   0.000   0.000   0.000   0.000   0.000   0.000   0.000   0.000   0.000    0.00    0.00    0.00    0.00    0.00    0.00   0.000   0.000   0.000   0.000   0.000   0.000   0.000   0.000   0.000
 2020 156    51  21.60  36.50  16.10   8.378   0.000   0.000   0.000   0.000   0.000   0.000   0.000   0.000   0.000   0.000   0.000    0.01    0.01    0.00    0.01    0.00    0.00   0.000   0.000   0.000   0.000   0.000   0.000   0.000   0.000   0.000
 2020 157    52  28.00  38.60  17.70  10.112   2.528   2.528   2.520   0.346   0.097   0.249   3.502   0.982   2.520   0.000   0.000    2.53    3.51    0.98    2.53    0.00    0.00   0.081   0.162   0.240   0.241   0.115   0.122   0.774   0.785   0.098
 2020 158    53  25.40  36.90  19.30  10.623   2.762   2.762   2.751   0.352   0.093   0.259   3.742   0.991   2.751   0.000   0.000    5.30    7.25    1.97    5.28    0.00    0.00   0.623   0.471   0.402   0.285   0.121   0.100   0.440   0.308   0.099
 2020 159    54  27.50  35.60  22.30  12.059   3.256   3.256   3.240   0.350   0.082   0.269   4.227   0.986   3.240   0.000   0.000    8.55   11.48    2.96    8.52    0.00    0.00   0.103   0.209   0.310   0.311   0.185   0.163   0.972   0.987   0.099
 2020 160    55  28.90  38.60  19.80  12.207   3.418   3.418   3.399   0.360   0.082   0.278   4.398   0.999   3.399   0.000   0.000   11.97   15.87    3.96   11.92    0.00    0.00   0.106   0.216   0.321   0.321   0.201   0.183   1.018   1.034   0.100
 2020 161    56   5.50  25.60   9.00   5.580   1.618   1.618   1.605   0.469   0.182   0.288   2.619   1.014   1.605   0.000   0.000   13.59   18.49    4.97   13.52    0.00    0.00   0.052   0.104   0.154   0.152   0.095   0.089   0.475   0.483   0.101
 2020 162    57  29.50  27.10   8.30   6.714   2.014   2.014   1.991   0.448   0.151   0.297   3.005   1.014   1.991   0.000   0.000   15.60   21.50    5.99   15.51    0.00    0.00   0.444   0.336   0.285   0.201   0.103   0.092   0.312   0.218   0.101
 2020 163    58  28.70  33.60  15.00   9.357   3.088   3.088   3.043   0.443   0.118   0.325   4.143   1.100   3.043   0.000   0.000   18.69   25.64    7.09   18.56    0.00    0.00   0.093   0.192   0.285   0.286   0.180   0.197   0.898   0.911   0.110
 2020 164    59  28.10  35.40  16.50   9.184   3.306   3.306   3.246   0.481   0.128   0.353   4.420   1.174   3.246   0.000   0.000   22.00   30.06    8.26   21.80    0.00    0.00   0.097   0.202   0.304   0.306   0.193   0.210   0.961   0.973   0.117
 2020 165    60  28.80  37.70  13.20  11.487   4.480   4.480   4.378   0.282   0.110   0.172   3.243   1.269   1.974   0.000   0.000   26.48   33.30    9.53   23.77    0.00    0.00   1.611   0.225   0.076   0.029   0.010   0.007   0.011   0.004   0.127
 2020 166    61  20.90  35.90  19.60  12.443   5.101   5.101   4.966   0.251   0.109   0.141   3.121   1.362   1.759   0.000   0.000   31.58   36.42   10.89   25.53    0.00    0.00   1.402   0.219   0.076   0.029   0.010   0.007   0.011   0.004   0.136
 2020 167    62  27.90  35.90  18.60  12.474   5.488   5.488   5.320   0.541   0.114   0.427   6.748   1.428   5.320   0.000   0.000   37.07   43.17   12.32   30.85    0.00    0.00   0.150   0.337   0.504   0.505   0.318   0.347   1.569   1.590   0.143
 2020 168    63  27.90  34.40  19.00  11.313   4.978   4.978   4.802   0.552   0.128   0.424   6.248   1.445   4.802   0.000   0.000   42.04   49.42   13.76   35.66    0.00    0.00   0.156   0.311   0.455   0.453   0.286   0.313   1.411   1.418   0.145
 2020 169    64  26.50  36.50  20.60  12.497   5.374   5.374   5.148   0.288   0.120   0.169   3.603   1.496   2.107   0.000   0.000   47.42   53.02   15.26   37.76    0.00    0.00   1.736   0.232   0.077   0.029   0.010   0.007   0.011   0.004   0.150
 2020 170    65  27.80  30.80  19.20   9.443   4.061   4.061   3.867   0.360   0.161   0.199   3.397   1.522   1.875   0.000   0.000   51.48   56.42   16.78   39.64    0.00    0.00   1.511   0.226   0.076   0.029   0.010   0.007   0.011   0.004   0.152
 2020 171    66  14.50  24.70  13.80   4.118   1.729   1.729   1.631   0.779   0.383   0.396   3.209   1.579   1.631   0.000   0.000   53.21   59.63   18.36   41.27    0.00    0.00   1.285   0.213   0.073   0.028   0.009   0.007   0.011   0.004   0.158
 2020 172    67  26.20  32.50  14.80   7.106   2.914   2.914   2.700   0.450   0.235   0.215   3.195   1.669   1.526   0.000   0.000   56.12   62.83   20.03   42.79    0.00    0.00   1.175   0.214   0.075   0.029   0.010   0.007   0.011   0.004   0.167
 2020 173    68  19.10  34.70  15.10   7.445   3.052   3.052   2.777   0.382   0.201   0.181   2.843   1.497   1.346   0.000   0.000   59.17   65.67   21.53   44.14    0.00    0.00   1.002   0.208   0.075   0.029   0.010   0.007   0.011   0.004   0.150
 2020 174    69  26.20  31.20  13.60   6.798   2.719   2.719   2.438   0.469   0.209   0.260   3.187   1.422   1.766   0.000   0.000   61.89   68.86   22.95   45.91    0.00    0.00   1.407   0.222   0.075   0.029   0.010   0.007   0.011   0.004   0.142
 2020 175    70  24.70  30.80  13.50   6.167   2.713   2.713   2.391   0.765   0.377   0.388   4.715   2.324   2.391   0.000   0.000   64.61   73.57   25.27   48.30    0.00    0.00   0.077   0.154   0.224   0.223   0.142   0.156   0.708   0.706   0.232
 2020 176    71  27.40  36.20  17.40   9.162   4.306   4.306   3.677   0.554   0.328   0.226   5.074   3.007   2.067   0.000   0.000   68.91   78.65   28.28   50.36    0.00    0.00   1.702   0.228   0.075   0.029   0.010   0.007   0.011   0.004   0.301
 2020 177    72  26.00  37.10  17.80  10.893   5.447   5.447   4.481   0.504   0.338   0.167   5.494   3.677   1.817   0.000   0.000   74.36   84.14   31.96   52.18    0.00    0.00   1.463   0.219   0.074   0.029   0.010   0.007   0.011   0.004   0.368
 2020 178    73  27.60  36.80  18.20   8.176   4.333   4.333   3.429   0.724   0.530   0.194   5.916   4.333   1.583   0.000   0.000   78.69   90.06   36.29   53.76    0.00    0.00   1.241   0.209   0.073   0.028   0.010   0.007   0.011   0.004   0.433
 2020 179    74  25.70  36.70  17.70   8.501   4.846   4.846   3.577   0.730   0.570   0.160   6.208   4.846   1.363   0.000   0.000   83.54   96.26   41.14   55.13    0.00    0.00   1.034   0.198   0.071   0.028   0.010   0.007   0.011   0.004   0.485
 2020 180    75  26.80  37.40  18.00   8.790   5.274   5.274   3.621   0.736   0.600   0.136   6.467   5.274   1.193   0.000   0.000   88.81  102.73   46.41   56.32    0.00    0.00   0.880   0.185   0.069   0.027   0.010   0.007   0.011   0.004   0.527
 2020 181    76  28.00  39.80  20.80  10.791   6.798   6.798   4.226   0.786   0.630   0.156   8.477   6.798   1.679   0.000   0.000   95.61  111.21   53.21   58.00    0.00    0.00   1.359   0.195   0.067   0.026   0.009   0.007   0.011   0.004   0.680
 2020 182    77  28.10  37.20  16.20   9.518   6.377   6.377   3.569   1.045   0.670   0.375   9.946   6.377   3.569   0.000   0.000  101.99  121.15   59.59   61.57    0.00    0.00   0.120   0.206   0.293   0.304   0.210   0.239   1.099   1.097   0.638
 2020 183    78  26.00  33.30  17.50   7.923   5.546   5.546   2.767   0.951   0.700   0.251   7.533   5.546   1.987   0.000   0.000  107.53  128.69   65.13   63.55    0.00    0.00   1.680   0.190   0.061   0.024   0.009   0.007   0.011   0.004   0.555
 2020 184    79  22.60  37.30  18.10   8.141   5.943   5.943   2.655   0.944   0.730   0.214   7.684   5.943   1.742   0.000   0.000  113.48  136.37   71.08   65.30    0.00    0.00   1.450   0.178   0.059   0.024   0.009   0.007   0.011   0.004   0.594
 2020 185    80  24.90  35.10  15.00   7.367   5.599   5.599   2.216   0.966   0.760   0.206   7.119   5.599   1.519   0.000   0.000  119.07  143.49   76.67   66.82    0.00    0.00   1.243   0.166   0.057   0.023   0.009   0.007   0.011   0.004   0.560
 2020 186    81  25.70  33.90  15.60   6.792   5.162   5.162   1.834   0.955   0.760   0.195   6.486   5.162   1.324   0.000   0.000  124.24  149.98   81.84   68.14    0.00    0.00   1.062   0.155   0.055   0.022   0.009   0.007   0.011   0.004   0.516
 2020 187    82  14.80  30.60  18.00   4.274   3.206   3.206   1.024   0.990   0.750   0.240   4.229   3.206   1.024   0.000   0.000  127.44  154.21   85.04   69.16    0.00    0.00   0.802   0.128   0.047   0.019   0.008   0.006   0.010   0.003   0.321
 2020 188    83  26.40  33.30  15.00   6.303   4.664   4.664   1.342   0.909   0.740   0.169   5.727   4.664   1.062   0.000   0.000  132.11  159.93   89.71   70.23    0.00    0.00   0.821   0.137   0.053   0.021   0.008   0.007   0.011   0.004   0.466
 2020 189    84  27.40  34.40  18.40   7.887   5.837   5.837   1.515   0.862   0.739   0.123   6.795   5.827   0.968   0.000   0.000  137.94  166.73   95.53   71.19    0.00    0.00   0.737   0.129   0.052   0.020   0.008   0.007   0.011   0.004   0.583
 2020 190    85  27.90  38.70  19.80  10.053   7.640   7.640   1.764   0.848   0.760   0.088   8.527   7.640   0.886   0.000   0.000  145.58  175.25  103.17   72.08    0.00    0.00   0.664   0.124   0.050   0.020   0.008   0.006   0.011   0.004   0.764
 2020 191    86  25.60  32.80  21.40   7.135   5.637   5.637   1.150   0.904   0.790   0.114   6.450   5.637   0.813   0.000   0.000  151.22  181.70  108.81   72.89    0.00    0.00   0.598   0.120   0.049   0.019   0.007   0.006   0.011   0.004   0.564
 2020 192    87  16.60  32.30  21.40   5.639   4.624   4.624   0.857   0.953   0.820   0.133   5.373   4.624   0.749   0.000   0.000  155.84  187.08  113.44   73.64    0.00    0.00   0.538   0.117   0.049   0.019   0.006   0.005   0.011   0.004   0.462
 2020 193    88  27.20  35.70  17.30   7.617   6.398   6.398   1.103   0.931   0.840   0.091   7.091   6.398   0.692   0.000   0.000  162.24  194.17  119.83   74.33    0.00    0.00   0.484   0.115   0.048   0.019   0.006   0.005   0.011   0.004   0.640
 2020 194    89  23.40  34.20  18.20   6.628   5.766   5.766   0.852   0.967   0.870   0.097   6.406   5.766   0.640   0.000   0.000  168.01  200.57  125.60   74.97    0.00    0.00   0.436   0.113   0.048   0.018   0.005   0.005   0.011   0.004   0.577
 2020 195    90  26.10  32.90  17.50   7.511   6.760   6.760   0.926   0.979   0.900   0.079   7.352   6.760   0.593   0.000   0.000  174.77  207.93  132.36   75.57    0.00    0.00   0.393   0.111   0.047   0.018   0.005   0.004   0.011   0.004   0.676
 2020 196    91  18.90  31.80  20.10   5.662   5.152   5.152   0.688   1.029   0.910   0.119   5.826   5.152   0.673   0.000   0.000  179.92  213.75  137.51   76.24    0.00    0.00   0.478   0.108   0.046   0.018   0.005   0.004   0.010   0.004   0.515
 2020 197    92  19.90  28.60  18.50   4.773   4.391   4.391   0.583   1.042   0.920   0.122   4.974   4.391   0.583   0.000   0.000  184.31  218.73  141.90   76.82    0.00    0.00   0.433   0.083   0.035   0.014   0.004   0.003   0.008   0.003   0.439
 2020 198    93  24.40  32.20  18.50   6.246   5.809   5.809   0.780   1.042   0.930   0.112   6.510   5.809   0.702   0.000   0.000  190.12  225.24  147.71   77.52    0.00    0.00   0.512   0.105   0.045   0.017   0.005   0.004   0.010   0.004   0.581
 2020 199    94  23.10  35.60  20.40   7.448   7.001   7.001   0.954   1.058   0.940   0.118   7.878   7.001   0.877   0.000   0.000  197.12  233.11  154.71   78.40    0.00    0.00   0.690   0.103   0.045   0.017   0.005   0.004   0.010   0.004   0.700
 2020 200    95  20.40  35.90  21.20   6.353   6.035   6.035   0.834   1.081   0.950   0.131   6.870   6.035   0.834   0.000   0.000  203.16  239.98  160.75   79.23    0.00    0.00   0.732   0.057   0.024   0.009   0.003   0.002   0.005   0.002   0.604
 2020 201    96  20.90  29.60  18.90   5.583   5.360   5.360   0.753   1.095   0.960   0.135   6.113   5.360   0.753   0.000   0.000  208.52  246.10  166.11   79.99    0.00    0.00   0.680   0.041   0.017   0.007   0.002   0.001   0.003   0.002   0.536
 2020 202    97  26.50  31.00  18.00   6.514   6.318   6.318   0.910   1.110   0.970   0.140   7.229   6.318   0.910   0.000   0.000  214.84  253.33  172.43   80.90    0.00    0.00   0.815   0.054   0.022   0.009   0.002   0.002   0.004   0.002   0.632
 2020 203    98  27.00  29.80  15.60   6.052   5.931   5.931   0.877   1.125   0.980   0.145   6.808   5.931   0.877   0.000   0.000  220.77  260.13  178.36   81.78    0.00    0.00   0.774   0.058   0.024   0.009   0.003   0.002   0.005   0.002   0.593
 2020 204    99  26.70  33.30  18.40   7.159   6.945   6.945   1.058   1.118   0.970   0.148   8.003   6.945   1.058   0.000   0.000  227.71  268.14  185.30   82.83    0.00    0.00   0.914   0.080   0.034   0.013   0.004   0.003   0.006   0.003   0.694
 2020 205   100  24.20  33.50  20.00   7.101   6.888   6.888   1.075   1.115   0.970   0.145   7.920   6.888   1.032   0.000   0.000  234.60  276.06  192.19   83.86    0.00    0.00   0.852   0.101   0.043   0.016   0.005   0.003   0.008   0.004   0.689
 2020 206   101  26.10  34.70  20.80   7.666   7.360   7.360   1.173   0.790   0.670   0.120   6.053   5.135   0.918   0.000   0.000  241.96  282.11  197.33   84.78    0.00    0.00   0.742   0.099   0.042   0.016   0.004   0.003   0.007   0.004   0.513
 2020 207   102  26.10  35.40  21.00   7.810   7.420   7.420   1.205   0.600   0.493   0.108   4.689   3.848   0.841   0.000   0.000  249.38  286.80  201.17   85.62    0.00    0.00   0.668   0.097   0.042   0.016   0.004   0.003   0.007   0.004   0.385
 2020 208   103  20.20  35.80  19.40   6.195   5.885   5.885   0.981   0.662   0.503   0.158   4.098   3.118   0.981   0.000   0.000  255.26  290.90  204.29   86.60    0.00    0.00   0.816   0.112   0.030   0.010   0.003   0.002   0.005   0.002   0.312
 2020 209   104  12.60  26.40  20.00   2.917   2.742   2.742   0.468   1.101   0.940   0.161   3.210   2.742   0.468   0.000   0.000  258.01  294.11  207.03   87.07    0.00    0.00   0.136   0.102   0.056   0.031   0.013   0.013   0.056   0.062   0.274
 2020 210   105  12.00  25.50  19.70   2.739   2.547   2.547   0.445   1.092   0.930   0.162   2.992   2.547   0.445   0.000   0.000  260.55  297.10  209.58   87.52    0.00    0.00   0.019   0.039   0.040   0.030   0.016   0.017   0.109   0.175   0.255
 2020 211   106  22.90  32.00  18.50   5.161   4.748   4.748   0.867   1.088   0.920   0.168   5.615   4.748   0.867   0.000   0.000  265.30  302.71  214.33   88.38    0.00    0.00   0.249   0.183   0.109   0.058   0.024   0.024   0.104   0.116   0.475
 2020 212   107  20.50  25.90  16.00   4.373   3.980   3.980   0.758   1.083   0.910   0.173   4.738   3.980   0.758   0.000   0.000  269.28  307.45  218.31   89.14    0.00    0.00   0.033   0.064   0.068   0.051   0.026   0.029   0.186   0.300   0.398
 2020 213   108  25.70  28.90  14.00   5.147   4.633   4.633   0.919   1.079   0.900   0.179   5.552   4.633   0.919   0.000   0.000  273.91  313.00  222.94   90.06    0.00    0.00   0.781   0.100   0.024   0.007   0.002   0.001   0.003   0.002   0.463
 2020 214   109  25.80  31.00  13.40   5.323   4.738   4.738   0.979   1.074   0.890   0.184   5.716   4.738   0.979   0.000   0.000  278.65  318.72  227.68   91.04    0.00    0.00   0.824   0.109   0.027   0.008   0.002   0.002   0.004   0.002   0.474
 2020 215   110  21.40  27.30  15.80   4.558   4.011   4.011   0.862   1.069   0.880   0.189   4.873   4.011   0.862   0.000   0.000  282.66  323.59  231.69   91.90    0.00    0.00   0.717   0.100   0.027   0.008   0.002   0.002   0.004   0.002   0.401
 2020 216   111  20.60  25.60  14.80   4.215   3.710   3.710   0.829   1.077   0.880   0.197   4.539   3.710   0.829   0.000   0.000  286.37  328.13  235.40   92.73    0.00    0.00   0.708   0.082   0.023   0.007   0.002   0.001   0.003   0.002   0.371
 2020 217   112  21.60  28.00  15.70   5.334   4.640   4.640   1.078   1.072   0.870   0.202   5.718   4.640   1.078   0.000   0.000  291.01  333.85  240.04   93.81    0.00    0.00   0.049   0.070   0.090   0.075   0.039   0.043   0.271   0.442   0.464
 2020 218   113  24.30  29.00  14.00   5.336   4.589   4.589   1.106   1.067   0.860   0.207   5.695   4.589   1.106   0.000   0.000  295.60  339.54  244.63   94.92    0.00    0.00   0.974   0.087   0.027   0.009   0.002   0.002   0.004   0.002   0.459
 2020 219   114  17.00  28.20  18.90   4.259   3.620   3.620   0.905   1.062   0.850   0.212   4.525   3.620   0.905   0.000   0.000  299.22  344.07  248.25   95.82    0.00    0.00   0.793   0.075   0.022   0.007   0.002   0.001   0.003   0.002   0.362
 2020 220   115  24.70  31.80  20.00   5.441   4.570   4.570   1.183   1.057   0.840   0.217   5.753   4.570   1.183   0.000   0.000  303.79  349.82  252.82   97.00    0.00    0.00   1.031   0.105   0.028   0.009   0.002   0.002   0.004   0.002   0.457
 2020 221   116  24.60  34.80  15.40   6.358   5.340   5.340   1.430   1.065   0.840   0.225   6.771   5.340   1.430   0.000   0.000  309.13  356.59  258.16   98.43    0.00    0.00   1.235   0.130   0.038   0.013   0.003   0.003   0.005   0.003   0.534
 2020 222   117  24.10  35.20  18.90   7.366   6.187   6.187   1.712   1.034   0.840   0.194   7.620   6.187   1.433   0.000   0.000  315.32  364.21  264.35   99.87    0.00    0.00   1.218   0.136   0.045   0.015   0.004   0.003   0.007   0.004   0.619
 2020 223   118  21.50  33.00  16.90   5.555   4.667   4.667   1.336   0.864   0.671   0.193   4.801   3.729   1.072   0.000   0.000  319.99  369.01  268.08  100.94    0.00    0.00   0.879   0.115   0.045   0.015   0.004   0.003   0.007   0.004   0.373
 2020 224   119  23.90  32.10  14.00   6.093   5.118   5.118   1.514   0.540   0.389   0.151   3.292   2.370   0.923   0.000   0.000  325.10  372.31  270.45  101.86    0.00    0.00   0.739   0.108   0.044   0.015   0.004   0.003   0.007   0.004   0.237
 2020 225   120  20.60  30.80  18.00   5.231   4.342   4.342   1.327   0.539   0.378   0.161   2.822   1.977   0.844   0.000   0.000  329.45  375.13  272.42  102.71    0.00    0.00   0.665   0.105   0.043   0.015   0.004   0.003   0.006   0.004   0.198
 2020 226   121  22.50  32.50  20.40   5.150   4.274   4.274   1.349   0.483   0.332   0.150   2.486   1.712   0.775   0.000   0.000  333.72  377.62  274.13  103.48    0.00    0.00   0.599   0.102   0.042   0.015   0.004   0.003   0.006   0.004   0.171
 2020 227   122  18.80  32.70  17.80   4.736   3.931   3.931   1.284   0.471   0.320   0.150   2.229   1.517   0.712   0.000   0.000  337.65  379.84  275.65  104.19    0.00    0.00   0.539   0.100   0.041   0.015   0.004   0.003   0.006   0.004   0.152
 2020 228   123  20.50  31.00  19.30   4.836   4.014   4.014   1.357   0.404   0.268   0.136   1.952   1.296   0.656   0.000   0.000  341.66  381.80  276.95  104.85    0.00    0.00   0.485   0.098   0.041   0.015   0.004   0.003   0.006   0.004   0.130
 2020 229   124  21.50  31.40  18.90   5.491   4.557   4.557   1.597   0.329   0.193   0.136   1.806   1.062   0.745   0.000   0.000  346.22  383.60  278.01  105.59    0.00    0.00   0.576   0.096   0.040   0.015   0.004   0.003   0.006   0.004   0.106
 2020 230   125  25.00  32.50  14.00   5.639   4.624   4.624   1.686   0.428   0.165   0.263   2.411   0.930   1.481   0.000   0.000  350.85  386.01  278.94  107.07    0.00    0.00   1.295   0.115   0.040   0.015   0.004   0.003   0.006   0.004   0.093
 2020 231   126  23.60  32.80  15.00   6.011   4.929   4.929   1.870   1.131   0.820   0.311   6.799   4.929   1.870   0.000   0.000  355.77  392.81  283.87  108.94    0.00    0.00   0.090   0.102   0.136   0.130   0.067   0.074   0.458   0.812   0.493
 2020 232   127  18.70  31.40  17.70   5.406   4.433   4.433   1.726   1.139   0.820   0.319   6.159   4.433   1.726   0.000   0.000  360.21  398.97  288.30  110.67    0.00    0.00   1.537   0.119   0.039   0.014   0.004   0.003   0.006   0.004   0.443
 2020 233   128  22.80  31.50  15.20   5.696   4.613   4.613   1.843   0.796   0.579   0.217   4.532   3.297   1.235   0.000   0.000  364.82  403.50  291.60  111.91    0.00    0.00   1.051   0.113   0.039   0.014   0.004   0.003   0.006   0.004   0.330
 2020 234   129  20.10  31.40  17.30   5.270   4.269   4.269   1.750   0.378   0.210   0.168   1.993   1.109   0.884   0.000   0.000  369.09  405.50  292.71  112.79    0.00    0.00   0.705   0.109   0.039   0.014   0.004   0.003   0.006   0.004   0.111
 2020 235   130  21.20  33.80  15.50   5.652   4.579   4.579   1.940   0.304   0.161   0.143   1.718   0.908   0.810   0.000   0.000  373.67  407.21  293.62  113.60    0.00    0.00   0.635   0.105   0.038   0.014   0.004   0.003   0.006   0.004   0.091
 2020 236   131  21.10  34.40  17.50   6.131   4.966   4.966   2.178   0.251   0.129   0.121   1.537   0.793   0.743   0.000   0.000  378.63  408.75  294.41  114.34    0.00    0.00   0.571   0.102   0.038   0.014   0.004   0.003   0.006   0.004   0.079
 2020 237   132  22.50  35.10  16.40   6.964   5.641   5.641   2.561   0.286   0.084   0.202   1.990   0.582   1.407   0.000   0.000  384.27  410.74  294.99  115.75    0.00    0.00   1.223   0.115   0.038   0.014   0.004   0.003   0.006   0.004   0.058
 2020 238   133  21.80  33.60  18.90   7.160   5.800   5.800   2.725   1.191   0.810   0.381   8.525   5.800   2.725   0.000   0.000  390.07  419.27  300.79  118.48    0.00    0.00   0.134   0.146   0.193   0.191   0.099   0.109   0.656   1.197   0.580
 2020 239   134  22.40  34.80  13.50   6.874   5.568   5.568   2.672   1.043   0.810   0.233   7.171   5.568   1.604   0.000   0.000  395.64  426.44  306.36  120.08    0.00    0.00   1.420   0.115   0.038   0.014   0.004   0.003   0.006   0.004   0.557
 2020 240   135  22.20  35.50  16.60   6.218   5.099   5.099   2.499   0.333   0.172   0.161   2.068   1.069   0.998   0.000   0.000  400.74  428.51  307.43  121.08    0.00    0.00   0.820   0.110   0.038   0.014   0.004   0.003   0.006   0.004   0.107
[...]
 2020 199    94  23.10  35.60  20.40   7.336   9.352   4.878   4.473   0.135   0.033   0.102   0.992   0.245   0.747   0.000   0.000  869.29  246.55   90.36  156.19    0.00    0.00   0.583   0.090   0.038   0.014   0.004   0.004   0.010   0.004   0.025
 2020 200    95  20.40  35.90  21.20   6.253   7.740   4.042   3.698   0.279   0.051   0.228   1.743   0.317   1.426   0.000   0.000  877.03  248.29   90.68  157.62    0.00    0.00   1.263   0.089   0.038   0.014   0.004   0.003   0.010   0.004   0.032
 2020 201    96  20.90  29.60  18.90   5.514   6.787   3.468   3.319   0.957   0.629   0.328   5.277   3.468   1.809   0.000   0.000  883.82  253.57   94.14  159.43    0.00    0.00   1.647   0.089   0.038   0.014   0.004   0.003   0.010   0.004   0.347
 2020 202    97  26.50  31.00  18.00   6.442   8.037   4.114   3.923   0.781   0.576   0.205   5.033   3.712   1.322   0.000   0.000  891.85  258.60   97.86  160.75    0.00    0.00   1.160   0.088   0.038   0.014   0.004   0.003   0.010   0.004   0.371
 2020 203    98  27.00  29.80  15.60   5.988   7.341   3.897   3.445   0.370   0.225   0.145   2.213   1.347   0.866   0.000   0.000  899.19  260.81   99.20  161.61    0.00    0.00   0.705   0.088   0.038   0.014   0.004   0.003   0.010   0.004   0.135
 2020 204    99  26.70  33.30  18.40   7.066   8.913   4.540   4.373   0.427   0.315   0.112   3.019   2.225   0.795   0.000   0.000  908.11  263.83  101.43  162.41    0.00    0.00   0.635   0.087   0.038   0.014   0.004   0.003   0.010   0.004   0.222
 2020 205   100  24.20  33.50  20.00   7.000   8.909   4.489   4.420   0.535   0.431   0.104   3.748   3.018   0.731   0.000   0.000  917.02  267.58  104.45  163.14    0.00    0.00   0.571   0.086   0.037   0.014   0.004   0.003   0.010   0.004   0.302
 2020 206   101  26.10  34.70  20.80   7.552   9.626   4.878   4.748   0.553   0.464   0.089   4.174   3.501   0.673   0.000   0.000  926.64  271.76  107.95  163.81    0.00    0.00   0.514   0.086   0.037   0.014   0.004   0.003   0.010   0.004   0.350
 2020 207   102  26.10  35.40  21.00   7.686   9.764   5.011   4.753   0.631   0.551   0.081   4.852   4.232   0.620   0.000   0.000  936.41  276.61  112.18  164.43    0.00    0.00   0.463   0.085   0.037   0.014   0.004   0.003   0.009   0.004   0.423
 2020 208   103  20.20  35.80  19.40   6.112   7.584   4.037   3.548   0.892   0.660   0.232   5.453   4.037   1.417   0.000   0.000  943.99  282.06  116.21  165.85    0.00    0.00   1.175   0.168   0.040   0.014   0.004   0.003   0.009   0.004   0.404
 2020 209   104  12.60  26.40  20.00   2.923   3.296   1.944   1.352   1.128   0.665   0.463   3.296   1.944   1.352   0.000   0.000  947.29  285.36  118.16  167.20    0.00    0.00   0.388   0.292   0.138   0.082   0.035   0.037   0.210   0.169   0.194
 2020 210   105  12.00  25.50  19.70   2.749   3.086   1.827   1.259   1.123   0.665   0.458   3.086   1.827   1.259   0.000   0.000  950.37  288.44  119.99  168.46    0.00    0.00   0.053   0.106   0.094   0.076   0.039   0.048   0.388   0.455   0.183
 2020 211   106  22.90  32.00  18.50   5.114   6.057   3.355   2.702   1.184   0.656   0.528   6.057   3.355   2.702   0.000   0.000  956.43  294.50  123.34  171.16    0.00    0.00   0.772   0.569   0.297   0.164   0.070   0.075   0.416   0.338   0.336
 2020 212   107  20.50  25.90  16.00   4.356   5.207   2.822   2.384   1.195   0.648   0.547   5.207   2.822   2.384   0.000   0.000  961.63  299.71  126.16  173.54    0.00    0.00   0.101   0.197   0.187   0.143   0.075   0.092   0.728   0.862   0.282
 2020 213   108  25.70  28.90  14.00   5.099   6.096   3.264   2.832   1.033   0.640   0.393   5.266   3.264   2.002   0.000   0.000  967.73  304.97  129.43  175.55    0.00    0.00   1.701   0.220   0.048   0.014   0.004   0.003   0.009   0.004   0.326
 2020 214   109  25.80  31.00  13.40   5.253   6.343   3.323   3.020   0.965   0.633   0.332   5.067   3.323   1.744   0.000   0.000  974.07  310.04  132.75  177.29    0.00    0.00   1.455   0.208   0.047   0.014   0.004   0.003   0.009   0.004   0.332
 2020 215   110  21.40  27.30  15.80   4.532   5.382   2.834   2.548   0.958   0.625   0.333   4.343   2.834   1.509   0.000   0.000  979.46  314.38  135.58  178.80    0.00    0.00   1.232   0.197   0.047   0.014   0.004   0.003   0.009   0.004   0.283
 2020 216   111  20.60  25.60  14.80   4.201   4.964   2.597   2.367   1.021   0.618   0.402   4.287   2.597   1.690   0.000   0.000  984.42  318.67  138.18  180.49    0.00    0.00   1.422   0.188   0.047   0.014   0.004   0.003   0.008   0.004   0.260
 2020 217   112  21.60  28.00  15.70   5.280   6.577   3.227   3.350   0.985   0.611   0.374   5.201   3.227   1.973   0.000   0.000  991.00  323.87  141.41  182.46    0.00    0.00   1.712   0.182   0.047   0.014   0.004   0.003   0.008   0.004   0.323
 2020 218   113  24.30  29.00  14.00   5.282   6.436   3.193   3.242   0.949   0.605   0.345   5.014   3.193   1.820   0.000   0.000  997.43  328.89  144.60  184.28    0.00    0.00   1.569   0.172   0.046   0.014   0.004   0.003   0.008   0.004   0.319
 2020 219   114  17.00  28.20  18.90   4.228   5.087   2.529   2.558   1.046   0.598   0.448   4.421   2.529   1.892   0.000   0.000   1003.    333.    147.    186.      0.      0.   1.632   0.181   0.046   0.014   0.004   0.003   0.008   0.004   0.253
 2020 220   115  24.70  31.80  20.00   5.403   6.368   3.199   3.169   0.958   0.592   0.366   5.175   3.199   1.976   0.000   0.000   1009.    338.    150.    188.      0.      0.   1.705   0.192   0.046   0.014   0.004   0.003   0.008   0.004   0.320
 2020 221   116  24.60  34.80  15.40   6.280   7.804   3.682   4.121   0.859   0.586   0.273   5.394   3.682   1.712   0.000   0.000   1017.    344.    154.    190.      0.      0.   1.453   0.180   0.045   0.014   0.004   0.003   0.008   0.004   0.368
 2020 222   117  24.10  35.20  18.90   7.242   9.210   4.209   5.000   0.782   0.581   0.201   5.667   4.209   1.457   0.000   0.000   1026.    350.    158.    191.      0.      0.   1.213   0.166   0.045   0.014   0.004   0.003   0.008   0.004   0.421
 2020 223   118  21.50  33.00  16.90   5.487   6.722   3.157   3.565   0.796   0.575   0.221   4.367   3.157   1.210   0.000   0.000   1033.    354.    161.    193.      0.      0.   0.982   0.151   0.045   0.014   0.004   0.003   0.008   0.004   0.316
 2020 224   119  23.90  32.10  14.00   6.023   7.523   3.428   4.095   0.745   0.569   0.176   4.488   3.428   1.060   0.000   0.000   1040.    358.    165.    194.      0.      0.   0.847   0.136   0.045   0.014   0.004   0.003   0.008   0.004   0.343
 2020 225   120  20.60  30.80  18.00   5.173   6.301   2.911   3.391   0.737   0.553   0.184   3.814   2.863   0.951   0.000   0.000   1046.    362.    168.    195.      0.      0.   0.753   0.121   0.044   0.014   0.004   0.003   0.008   0.004   0.286
 2020 226   121  22.50  32.50  20.40   5.109   6.024   2.839   3.185   0.726   0.556   0.170   3.708   2.839   0.869   0.000   0.000   1052.    366.    171.    195.      0.      0.   0.678   0.114   0.044   0.014   0.004   0.003   0.008   0.004   0.284
 2020 227   122  18.80  32.70  17.80   4.683   5.625   2.569   3.056   0.719   0.549   0.170   3.365   2.569   0.796   0.000   0.000   1058.    369.    173.    196.      0.      0.   0.611   0.110   0.043   0.014   0.004   0.003   0.008   0.004   0.257
 2020 228   123  20.50  31.00  19.30   4.796   5.705   2.595   3.110   0.693   0.541   0.152   3.326   2.595   0.731   0.000   0.000   1064.    373.    176.    197.      0.      0.   0.550   0.106   0.042   0.014   0.004   0.003   0.008   0.004   0.260
 2020 229   124  21.50  31.40  18.90   5.429   6.639   2.895   3.744   0.538   0.389   0.150   2.921   2.110   0.812   0.000   0.000   1070.    376.    178.    198.      0.      0.   0.635   0.103   0.042   0.014   0.004   0.003   0.008   0.004   0.211
 2020 230   125  25.00  32.50  14.00   5.566   6.837   2.922   3.915   0.599   0.327   0.273   3.337   1.819   1.517   0.000   0.000   1077.    379.    180.    199.      0.      0.   1.321   0.122   0.041   0.014   0.004   0.003   0.007   0.004   0.182
 2020 231   126  23.60  32.80  15.00   5.940   7.389   3.068   4.321   1.218   0.516   0.702   7.237   3.068   4.169   0.000   0.000   1085.    386.    183.    203.      0.      0.   0.196   0.237   0.305   0.272   0.143   0.170   1.194   1.654   0.307
 2020 232   127  18.70  31.40  17.70   5.332   6.605   2.708   3.897   0.857   0.508   0.349   4.570   2.708   1.862   0.000   0.000   1091.    391.    185.    205.      0.      0.   1.661   0.129   0.040   0.014   0.004   0.003   0.007   0.004   0.271
 2020 233   128  22.80  31.50  15.20   5.629   6.971   2.808   4.163   0.773   0.499   0.274   4.351   2.808   1.543   0.000   0.000   1098.    395.    188.    207.      0.      0.   1.350   0.122   0.040   0.014   0.004   0.003   0.007   0.004   0.281
 2020 234   129  20.10  31.40  17.30   5.201   6.382   2.546   3.837   0.723   0.489   0.234   3.763   2.546   1.217   0.000   0.000   1105.    399.    191.    208.      0.      0.   1.028   0.117   0.040   0.014   0.004   0.003   0.007   0.004   0.255
 2020 235   130  21.20  33.80  15.50   5.588   6.923   2.682   4.240   0.492   0.323   0.169   2.752   1.807   0.945   0.000   0.000   1112.    402.    193.    209.      0.      0.   0.760   0.114   0.040   0.014   0.004   0.003   0.007   0.004   0.181
 2020 236   131  21.10  34.40  17.50   6.050   7.563   2.845   4.718   0.370   0.228   0.143   2.240   1.377   0.863   0.000   0.000   1119.    404.    194.    210.      0.      0.   0.684   0.108   0.039   0.014   0.004   0.003   0.007   0.004   0.138
 2020 237   132  22.50  35.10  16.40   6.882   8.784   3.168   5.615   0.384   0.171   0.213   2.643   1.176   1.467   0.000   0.000   1128.    406.    195.    211.      0.      0.   1.274   0.123   0.039   0.014   0.004   0.003   0.007   0.004   0.118
 2020 238   133  21.80  33.60  18.90   7.030   9.022   3.159   5.863   1.029   0.449   0.579   7.231   3.159   4.072   0.000   0.000   1137.    414.    198.    215.      0.      0.   0.196   0.232   0.290   0.268   0.141   0.165   1.144   1.636   0.316
 2020 239   134  22.40  34.80  13.50   6.831   8.764   3.003   5.760   0.710   0.440   0.270   4.849   3.003   1.846   0.000   0.000   1146.    419.    201.    217.      0.      0.   1.651   0.126   0.038   0.014   0.004   0.003   0.007   0.004   0.300
 2020 240   135  22.20  35.50  16.60   6.148   7.685   2.642   5.044   0.671   0.430   0.242   4.128   2.642   1.486   0.000   0.000   1153.    423.    204.    219.      0.      0.   1.298   0.119   0.038   0.014   0.004   0.003   0.007   0.004   0.264
 2020 241   136  22.00  35.50  17.20   6.216   7.774   2.609   5.165   0.695   0.420   0.275   4.321   2.609   1.712   0.000   0.000   1161.    427.    207.    220.      0.      0.   1.453   0.184   0.044   0.014   0.004   0.003   0.007   0.004   0.261
 2020 242   137  11.50  24.60  17.20   2.625   2.997   1.075   1.922   1.142   0.410   0.732   2.997   1.075   1.922   0.000   0.000   1164.    430.    208.    222.      0.      0.   0.087   0.181   0.173   0.118   0.062   0.073   0.503   0.724   0.108
 2020 243   138  19.90  33.30  16.00   4.706   5.700   1.880   3.820   1.211   0.399   0.812   5.697   1.878   3.820   0.000   0.000   1170.    436.    209.    226.      0.      0.   0.177   0.350   0.357   0.235   0.124   0.144   0.996   1.437   0.188
 2020 244   139  22.40  24.60  14.00   4.388   5.306   1.710   3.596   1.209   0.390   0.819   5.306   1.710   3.596   0.000   0.000   1175.    441.    211.    230.      0.      0.   1.039   0.778   0.523   0.207   0.089   0.091   0.435   0.433   0.171
 2020 245   140  13.90  25.80  15.20   3.139   3.676   1.193   2.483   1.171   0.380   0.791   3.676   1.193   2.483   0.000   0.000   1179.    445.    212.    232.      0.      0.   0.111   0.225   0.303   0.147   0.077   0.091   0.626   0.904   0.119
 2020 246   141  22.80  31.00  13.90   4.584   5.520   1.701   3.819   0.823   0.371   0.452   3.775   1.701   2.074   0.000   0.000   1184.    448.    214.    234.      0.      0.   1.740   0.233   0.071   0.013   0.004   0.003   0.007   0.003   0.170
 2020 247   142  22.90  26.30  13.20   4.579   5.569   1.657   3.911   0.769   0.362   0.407   3.521   1.657   1.864   0.000   0.000   1190.    452.    216.    236.      0.      0.   1.537   0.228   0.069   0.013   0.004   0.003   0.007   0.003   0.166
 2020 248   143  22.30  31.60   8.20   4.624   5.731   1.634   4.098   0.716   0.353   0.362   3.309   1.634   1.675   0.000   0.000   1196.    455.    217.    238.      0.      0.   1.355   0.222   0.068   0.013   0.004   0.003   0.007   0.003   0.163
 2020 249   144  21.30  34.00  15.50   5.748   7.180   1.981   5.199   0.606   0.345   0.262   3.486   1.981   1.505   0.000   0.000   1203.    459.    219.    239.      0.      0.   1.191   0.217   0.067   0.013   0.004   0.003   0.007   0.003   0.198
 2020 250   145  19.40  36.00  19.60   6.177   7.787   2.076   5.711   0.554   0.336   0.218   3.420   2.076   1.344   0.000   0.000   1211.    462.    221.    241.      0.      0.   1.038   0.211   0.066   0.013   0.004   0.003   0.007   0.003   0.208
 2020 251   146  19.30  34.00  14.00   5.417   6.787   1.774   5.013   0.648   0.328   0.321   3.512   1.774   1.738   0.000   0.000   1217.    466.    223.    242.      0.      0.   1.418   0.224   0.066   0.013   0.004   0.003   0.007   0.003   0.177
 2020 252   147   3.30  16.00   2.80   2.544   3.322   0.813   2.508   1.306   0.320   0.986   3.322   0.813   2.508   0.000   0.000   1221.    469.    224.    245.      0.      0.   0.720   0.543   0.399   0.139   0.060   0.061   0.294   0.293   0.081
 2020 253   148   3.70   5.20   1.70   0.705   0.820   0.206   0.615   1.164   0.292   0.872   0.820   0.206   0.615   0.000   0.000   1222.    470.    224.    246.      0.      0.   0.172   0.131   0.104   0.041   0.014   0.014   0.069   0.069   0.021
 2020 254   149   9.20  12.90   4.70   1.691   1.955   0.413   1.542   1.156   0.244   0.912   1.955   0.413   1.542   0.000   0.000   1223.    472.    225.    247.      0.      0.   0.421   0.315   0.269   0.126   0.035   0.035   0.170   0.170   0.041
 2020 255   150  20.10  22.00   8.90   3.316   3.933   0.797   3.136   1.186   0.240   0.946   3.933   0.797   3.136   0.000   0.000   1227.    476.    225.    250.      0.      0.   0.136   0.271   0.404   0.294   0.092   0.108   0.748   1.084   0.080
 2020 256   151  21.50  28.60   8.80   4.227   5.189   1.003   4.186   1.228   0.237   0.990   5.189   1.003   4.186   0.000   0.000   1233.    481.    226.    254.      0.      0.   0.180   0.359   0.535   0.402   0.123   0.144   0.997   1.446   0.100
 2020 257   152  21.50  29.00   5.90   3.570   4.404   0.838   3.566   0.814   0.235   0.579   2.907   0.838   2.069   0.000   0.000   1237.    484.    227.    257.      0.      0.   1.726   0.229   0.076   0.022   0.004   0.003   0.007   0.003   0.084
 2020 258   153  18.50  27.30   7.90   3.434   4.174   0.798   3.376   0.780   0.232   0.548   2.679   0.798   1.881   0.000   0.000   1241.    486.    228.    258.      0.      0.   1.541   0.226   0.075   0.022   0.004   0.003   0.007   0.003   0.080
 2020 259   154  19.30  28.20   8.60   4.005   4.923   0.922   4.001   1.229   0.230   0.999   4.923   0.922   4.001   0.000   0.000   1246.    491.    229.    262.      0.      0.   0.162   0.351   0.518   0.398   0.117   0.137   0.946   1.372   0.092
 2020 260   155  18.60  27.70   7.40   3.638   4.455   0.830   3.625   1.225   0.228   0.996   4.455   0.830   3.625   0.000   0.000   1251.    496.    230.    266.      0.      0.   0.970   0.731   0.618   0.361   0.080   0.081   0.391   0.392   0.083
 2020 261   156  18.10  26.90   8.10   3.410   4.142   0.771   3.371   0.830   0.226   0.604   2.832   0.771   2.061   0.000   0.000   1255.    499.    231.    268.      0.      0.   1.709   0.233   0.077   0.025   0.003   0.003   0.007   0.003   0.077
 2020 262   157  16.80  27.70   9.00   4.210   5.249   0.942   4.306   0.669   0.224   0.445   2.818   0.942   1.875   0.000   0.000   1260.    501.    232.    270.      0.      0.   1.527   0.230   0.076   0.025   0.003   0.003   0.007   0.003   0.094
 2020 263   158  17.20  28.20   9.60   5.316   6.865   1.179   5.685   0.543   0.222   0.321   2.884   1.179   1.705   0.000   0.000   1267.    504.    233.    272.      0.      0.   1.361   0.227   0.076   0.025   0.003   0.003   0.007   0.003   0.118
 2020 264   159  18.20  30.30  14.60   6.041   7.851   1.329   6.522   0.476   0.220   0.256   2.876   1.329   1.547   0.000   0.000   1275.    507.    234.    273.      0.      0.   1.207   0.223   0.075   0.025   0.003   0.003   0.007   0.003   0.133
 2020 265   160  18.20  29.10  10.80   4.883   6.170   1.066   5.104   1.136   0.218   0.918   5.549   1.066   4.483   0.000   0.000   1281.    513.    235.    278.      0.      0.   0.165   0.393   0.572   0.497   0.129   0.151   1.050   1.526   0.107
 2020 266   161  18.70  28.80   9.70   4.399   5.480   0.953   4.528   1.246   0.217   1.029   5.480   0.953   4.528   0.000   0.000   1286.    518.    236.    282.      0.      0.   1.212   0.913   0.763   0.477   0.098   0.100   0.482   0.483   0.095
 2020 267   162  17.40  29.20  13.00   3.968   4.836   0.852   3.984   0.727   0.215   0.512   2.884   0.852   2.032   0.000   0.000   1291.    521.    237.    284.      0.      0.   1.682   0.232   0.076   0.026   0.003   0.003   0.006   0.003   0.085
 2020 268   163  18.50  34.60  10.60   4.114   5.103   0.876   4.227   0.662   0.213   0.449   2.723   0.876   1.847   0.000   0.000   1296.    524.    238.    286.      0.      0.   1.502   0.229   0.075   0.026   0.003   0.003   0.006   0.003   0.088
 2020 269   164  18.70  36.80  10.50   5.272   6.643   1.115   5.528   0.530   0.211   0.319   2.795   1.115   1.680   0.000   0.000   1303.    527.    239.    288.      0.      0.   1.339   0.225   0.075   0.026   0.003   0.003   0.006   0.003   0.111
 2020 270   165  16.50  34.10  11.30   4.260   5.325   0.895   4.430   0.568   0.210   0.358   2.421   0.895   1.526   0.000   0.000   1308.    529.    240.    289.      0.      0.   1.188   0.222   0.074   0.026   0.003   0.003   0.006   0.003   0.089
 2020 271   166  15.80  21.70  12.50   5.037   6.581   1.052   5.529   0.485   0.209   0.276   2.442   1.052   1.390   0.000   0.000   1315.    532.    241.    291.      0.      0.   1.056   0.218   0.073   0.026   0.003   0.003   0.006   0.003   0.105
 2020 272   167  19.00  20.10   3.50   4.220   5.454   0.881   4.573   0.508   0.209   0.300   2.145   0.881   1.264   0.000   0.000   1320.    534.    242.    292.      0.      0.   0.935   0.215   0.072   0.026   0.003   0.003   0.006   0.003   0.088
 2020 273   168  18.60  29.00   3.10   4.356   5.486   0.910   4.576   0.476   0.209   0.267   2.074   0.910   1.164   0.000   0.000   1326.    536.    243.    293.      0.      0.   0.839   0.211   0.072   0.026   0.003   0.003   0.006   0.003   0.091
 2020 274   169  17.60  26.20   6.00   4.171   5.285   0.871   4.414   0.466   0.208   0.258   1.944   0.869   1.075   0.000   0.000   1331.    538.    243.    294.      0.      0.   0.755   0.208   0.071   0.026   0.003   0.003   0.006   0.003   0.087
 2020 275   170  17.70  20.40   2.80   3.062   3.810   0.639   3.170   0.534   0.209   0.325   1.635   0.639   0.996   0.000   0.000   1335.    539.    244.    295.      0.      0.   0.679   0.204   0.070   0.026   0.003   0.003   0.006   0.003   0.064
 2020 276   171  17.10  26.80   2.50   3.517   4.394   0.734   3.660   0.472   0.209   0.263   1.659   0.734   0.924   0.000   0.000   1339.    541.    245.    296.      0.      0.   0.612   0.202   0.070   0.026   0.003   0.003   0.006   0.003   0.073
 2020 277   172  15.50  22.00   4.00   3.702   4.700   0.773   3.927   0.441   0.209   0.232   1.633   0.773   0.860   0.000   0.000   1344.    543.    246.    297.      0.      0.   0.551   0.198   0.069   0.026   0.003   0.003   0.006   0.003   0.077
