*SOIL-PLANT-ATMOSPHERE MODULE OUTPUT FILE

*DSSAT Cropping System Model Ver. 4.7.5.035 -develop  JUN 10, 2021 14:49:00

*RUN   1        : 20 IRRIG, light rate,freq MZCER047 KSRT2001    1
 MODEL          : MZCER047 - Maize
 EXPERIMENT     : KSRT2001 SB ARM 2020 KS, IRRIGATED & NON-IRRIGATED
 DATA PATH      :
 TREATMENT  1   : 20 IRRIG, light rate,freq MZCER047
  
!                                                                                                                                                                                        Soil evaporation (mm/d) by soil depth (cm):
!                                                                                                                                                                                        0-5    5-15   15-29   29-43   43-53   53-64  64-132 132-201
@YEAR DOY   DAS   SRAA  TMAXA  TMINA    REFA    EOAA    EOPA    EOSA    KCAA    KCBA    KEAA    ETAA    EPAA    ESAA    EFAA    EMAA    EOAC    ETAC    EPAC    ESAC    EFAC    EMAC    ES1D    ES2D    ES3D    ES4D    ES5D    ES6D    ES7D    ES8D   TRWUD
 2020 130     1  27.20  22.10   3.50   7.371   7.371   0.000   7.371   0.196   0.000   0.196   1.443   0.000   1.443   0.000   0.000    7.37    1.44    0.00    1.44    0.00    0.00   1.194   0.158   0.046   0.017   0.007   0.005   0.012   0.004   0.000
 2020 131     2  27.10  18.30   4.10   6.218   6.218   0.000   6.218   0.213   0.000   0.213   1.323   0.000   1.323   0.000   0.000   13.59    2.77    0.00    2.77    0.00    0.00   1.075   0.157   0.046   0.017   0.007   0.005   0.012   0.004   0.000
 2020 132     3   3.30   8.90   2.80   1.362   1.362   0.000   1.362   1.000   0.000   1.000   1.362   0.000   1.362   0.000   0.000   14.95    4.13    0.00    4.13    0.00    0.00   1.120   0.153   0.044   0.017   0.007   0.005   0.011   0.004   0.000
 2020 133     4   5.40   8.20   2.60   1.352   1.352   0.000   1.352   1.000   0.000   1.000   1.352   0.000   1.352   0.000   0.000   16.30    5.48    0.00    5.48    0.00    0.00   1.128   0.141   0.041   0.016   0.007   0.005   0.011   0.004   0.000
 2020 134     5  17.80  22.10   6.70   5.223   5.223   0.000   5.223   0.270   0.000   0.270   1.408   0.000   1.408   0.000   0.000   21.53    6.89    0.00    6.89    0.00    0.00   1.162   0.154   0.045   0.017   0.007   0.005   0.012   0.004   0.000
 2020 135     6  20.60  26.70   9.30   6.339   6.339   0.000   6.339   0.205   0.000   0.205   1.301   0.000   1.301   0.000   0.000   27.86    8.19    0.00    8.19    0.00    0.00   1.056   0.153   0.045   0.017   0.007   0.005   0.012   0.004   0.000
 2020 136     7  24.10  26.00  12.90   6.172   6.172   0.000   6.172   0.202   0.000   0.202   1.244   0.000   1.244   0.000   0.000   34.04    9.43    0.00    9.43    0.00    0.00   1.001   0.152   0.045   0.017   0.007   0.005   0.012   0.004   0.000
 2020 137     8  22.90  24.30  12.70   5.402   5.402   0.000   5.402   0.263   0.000   0.263   1.422   0.000   1.422   0.000   0.000   39.44   10.85    0.00   10.85    0.00    0.00   1.180   0.151   0.045   0.017   0.007   0.005   0.012   0.004   0.000
 2020 138     9  27.60  25.40  10.10   6.767   6.767   0.000   6.767   0.227   0.000   0.227   1.533   0.000   1.533   0.000   0.000   46.20   12.39    0.00   12.39    0.00    0.00   1.292   0.150   0.045   0.017   0.007   0.005   0.012   0.004   0.000
 2020 139    10  26.90  28.00   7.00   7.266   7.266   0.000   7.266   0.193   0.000   0.193   1.403   0.000   1.403   0.000   0.000   53.47   13.79    0.00   13.79    0.00    0.00   1.163   0.149   0.045   0.017   0.007   0.005   0.012   0.004   0.000
 2020 140    11  23.70  28.80  11.00   7.130   7.130   0.000   7.130   0.180   0.000   0.180   1.286   0.000   1.286   0.000   0.000   60.60   15.08    0.00   15.08    0.00    0.00   1.047   0.148   0.045   0.017   0.007   0.005   0.012   0.004   0.000
 2020 141    12  20.80  26.00  11.30   6.448   6.448   0.000   6.448   0.183   0.000   0.183   1.180   0.000   1.180   0.000   0.000   67.05   16.26    0.00   16.26    0.00    0.00   0.943   0.147   0.045   0.017   0.007   0.005   0.012   0.004   0.000
 2020 142    13  16.10  27.40  12.20   6.071   6.071   0.000   6.071   0.277   0.000   0.277   1.684   0.000   1.684   0.000   0.000   73.12   17.94    0.00   17.94    0.00    0.00   1.390   0.200   0.048   0.017   0.007   0.005   0.012   0.004   0.000
 2020 143    14  28.00  24.80  10.50   6.791   6.791   0.000   6.791   0.831   0.000   0.831   5.646   0.000   5.646   0.000   0.000   79.91   23.59    0.00   23.59    0.00    0.00   0.196   0.401   0.393   0.338   0.266   0.293   1.865   1.894   0.000
 2020 144    15  22.50  33.10  12.10   8.913   8.913   0.000   8.913   0.627   0.000   0.627   5.592   0.000   5.592   0.000   0.000   88.82   29.18    0.00   29.18    0.00    0.00   0.194   0.392   0.401   0.334   0.263   0.290   1.845   1.873   0.000
 2020 145    16  23.60  26.80  12.80   7.396   7.396   0.000   7.396   0.279   0.000   0.279   2.067   0.000   2.067   0.000   0.000   96.22   31.25    0.00   31.25    0.00    0.00   1.736   0.233   0.053   0.017   0.007   0.005   0.011   0.004   0.000
 2020 146    17  15.70  19.40   8.60   4.668   4.668   0.000   4.668   0.407   0.000   0.407   1.902   0.000   1.902   0.000   0.000  100.89   33.15    0.00   33.15    0.00    0.00   1.573   0.231   0.053   0.017   0.007   0.005   0.011   0.004   0.000
 2020 147    18  23.60  25.60   6.20   6.146   6.146   0.000   6.146   0.285   0.000   0.285   1.754   0.000   1.754   0.000   0.000  107.03   34.90    0.00   34.90    0.00    0.00   1.426   0.230   0.053   0.017   0.007   0.005   0.011   0.004   0.000
 2020 148    19  15.40  24.30   8.90   5.072   5.072   0.000   5.072   0.317   0.000   0.317   1.610   0.000   1.610   0.000   0.000  112.11   36.51    0.00   36.51    0.00    0.00   1.284   0.228   0.053   0.017   0.007   0.005   0.011   0.004   0.000
 2020 149    20  26.90  27.60  10.10   7.470   7.470   0.000   7.470   0.198   0.000   0.198   1.480   0.000   1.480   0.000   0.000  119.58   37.99    0.00   37.99    0.00    0.00   1.156   0.227   0.053   0.017   0.007   0.005   0.011   0.004   0.000
 2020 150    21  27.90  31.00  12.40   8.732   8.732   0.000   8.732   0.156   0.000   0.156   1.363   0.000   1.363   0.000   0.000  128.31   39.36    0.00   39.36    0.00    0.00   1.040   0.225   0.053   0.017   0.007   0.005   0.011   0.004   0.000
 2020 151    22  27.80  35.20  16.20  11.866  11.866   0.000  11.866   0.490   0.000   0.490   5.814   0.000   5.814   0.000   0.000  140.17   45.17    0.00   45.17    0.00    0.00   0.158   0.397   0.506   0.473   0.314   0.290   1.824   1.852   0.000
 2020 152    23  28.10  34.30  17.70  12.002  12.002   0.000  12.002   0.923   0.000   0.923  11.079   0.000  11.079   0.000   0.000  152.18   56.25    0.00   56.25    0.00    0.00   2.504   1.887   1.605   1.137   0.575   0.444   1.721   1.206   0.000
 2020 153    24  27.10  34.80  17.00  11.903  11.903   0.000  11.903   0.506   0.000   0.506   6.020   0.000   6.020   0.000   0.000  164.08   62.27    0.00   62.27    0.00    0.00   0.174   0.379   0.573   0.579   0.359   0.353   1.785   1.819   0.000
 2020 154    25  27.80  37.00  16.70  10.183  10.183   0.000  10.183   0.188   0.000   0.188   1.918   0.000   1.918   0.000   0.000  174.26   64.19    0.00   64.19    0.00    0.00   1.557   0.226   0.076   0.029   0.010   0.006   0.011   0.004   0.000
 2020 155    26  27.90  35.40  17.80   9.332   9.332   0.000   9.332   0.189   0.000   0.189   1.762   0.000   1.762   0.000   0.000  183.59   65.95    0.00   65.95    0.00    0.00   1.402   0.224   0.076   0.029   0.010   0.006   0.011   0.004   0.000
 2020 156    27  21.60  36.50  16.10   8.291   8.291   0.000   8.291   0.197   0.000   0.197   1.630   0.000   1.630   0.000   0.000  191.89   67.58    0.00   67.58    0.00    0.00   1.272   0.223   0.076   0.029   0.010   0.006   0.011   0.004   0.000
 2020 157    28  28.00  38.60  17.70  10.112  10.112   0.000  10.080   0.149   0.000   0.149   1.512   0.000   1.512   0.000   0.000  202.00   69.09    0.00   69.09    0.00    0.00   1.155   0.221   0.076   0.029   0.010   0.006   0.011   0.004   0.000
 2020 158    29  25.40  36.90  19.30  10.623  10.623   0.000  10.552   0.131   0.000   0.131   1.395   0.000   1.395   0.000   0.000  212.62   70.48    0.00   70.48    0.00    0.00   1.040   0.220   0.075   0.029   0.010   0.006   0.011   0.004   0.000
 2020 159    30  27.50  35.60  22.30  12.059  12.059   0.000  11.931   0.107   0.000   0.107   1.290   0.000   1.290   0.000   0.000  224.68   71.77    0.00   71.77    0.00    0.00   0.936   0.218   0.075   0.029   0.010   0.006   0.011   0.004   0.000
 2020 160    31  28.90  38.60  19.80  12.207  12.207   0.000  12.021   0.098   0.000   0.098   1.195   0.000   1.195   0.000   0.000  236.89   72.97    0.00   72.97    0.00    0.00   0.843   0.217   0.075   0.029   0.010   0.006   0.011   0.004   0.000
 2020 161    32   5.50  25.60   9.00   5.580   5.580   0.000   5.404   0.300   0.000   0.300   1.676   0.000   1.676   0.000   0.000  242.47   74.65    0.00   74.65    0.00    0.00   1.321   0.220   0.075   0.029   0.010   0.006   0.011   0.004   0.000
 2020 162    33  29.50  27.10   8.30   6.714   6.714   0.000   6.456   0.314   0.000   0.314   2.110   0.000   2.110   0.000   0.000  249.18   76.76    0.00   76.76    0.00    0.00   1.752   0.223   0.075   0.029   0.010   0.006   0.011   0.004   0.000
 2020 163    34  28.70  33.60  15.00   9.357   9.357   0.000   8.904   0.207   0.000   0.207   1.933   0.000   1.933   0.000   0.000  258.54   78.69    0.00   78.69    0.00    0.00   1.577   0.222   0.075   0.029   0.010   0.006   0.011   0.004   0.000
 2020 164    35  28.10  35.40  16.50   9.184   9.184   0.000   8.580   0.193   0.000   0.193   1.775   0.000   1.775   0.000   0.000  267.72   80.46    0.00   80.46    0.00    0.00   1.420   0.220   0.075   0.029   0.010   0.006   0.011   0.004   0.000
 2020 165    36  28.80  37.70  13.20  11.487  11.487   0.000  10.490   0.142   0.000   0.142   1.631   0.000   1.631   0.000   0.000  279.21   82.09    0.00   82.09    0.00    0.00   1.278   0.219   0.075   0.029   0.010   0.006   0.011   0.004   0.000
 2020 166    37  20.90  35.90  19.60  12.443  12.443   0.000  11.083   0.121   0.000   0.121   1.502   0.000   1.502   0.000   0.000  291.65   83.60    0.00   83.60    0.00    0.00   1.151   0.217   0.075   0.029   0.010   0.006   0.011   0.004   0.000
 2020 167    38  27.90  35.90  18.60  12.474  12.474   0.000  10.784   0.111   0.000   0.111   1.386   0.000   1.386   0.000   0.000  304.12   84.98    0.00   84.98    0.00    0.00   1.036   0.216   0.074   0.029   0.010   0.006   0.011   0.004   0.000
 2020 168    39  27.90  34.40  19.00  11.313  11.313   0.000   9.453   0.113   0.000   0.113   1.275   0.000   1.275   0.000   0.000  315.44   86.26    0.00   86.26    0.00    0.00   0.927   0.214   0.074   0.029   0.010   0.006   0.011   0.004   0.000
 2020 169    40  26.50  36.50  20.60  12.497  12.497   0.000  10.002   0.095   0.000   0.095   1.182   0.000   1.182   0.000   0.000  327.93   87.44    0.00   87.44    0.00    0.00   0.836   0.212   0.074   0.029   0.010   0.006   0.011   0.004   0.000
 2020 170    41  27.80  30.80  19.20   9.443   9.443   0.000   7.180   0.116   0.000   0.116   1.097   0.000   1.097   0.000   0.000  337.38   88.54    0.00   88.54    0.00    0.00   0.753   0.211   0.074   0.029   0.010   0.006   0.011   0.004   0.000
 2020 171    42  14.50  24.70  13.80   4.118   4.118   0.000   2.986   0.254   0.000   0.254   1.046   0.000   1.046   0.000   0.000  341.49   89.58    0.00   89.58    0.00    0.00   0.703   0.209   0.074   0.029   0.010   0.006   0.011   0.004   0.000
 2020 172    43  26.20  32.50  14.80   7.106   7.106   0.000   4.991   0.141   0.000   0.141   1.000   0.000   1.000   0.000   0.000  348.60   90.58    0.00   90.58    0.00    0.00   0.658   0.208   0.074   0.029   0.010   0.006   0.011   0.004   0.000
 2020 173    44  19.10  34.70  15.10   7.445   7.445   0.000   4.963   0.125   0.000   0.125   0.933   0.000   0.933   0.000   0.000  356.05   91.52    0.00   91.52    0.00    0.00   0.593   0.207   0.074   0.029   0.010   0.006   0.011   0.004   0.000
 2020 174    45  26.20  31.20  13.60   6.798   6.798   0.000   4.273   0.128   0.000   0.128   0.873   0.000   0.873   0.000   0.000  362.84   92.39    0.00   92.39    0.00    0.00   0.534   0.205   0.073   0.029   0.010   0.006   0.011   0.004   0.000
 2020 175    46  24.70  30.80  13.50   6.167   6.167   0.000   3.664   0.133   0.000   0.133   0.818   0.000   0.818   0.000   0.000  369.01   93.21    0.00   93.21    0.00    0.00   0.481   0.204   0.073   0.029   0.010   0.006   0.011   0.004   0.000
 2020 176    47  27.40  36.20  17.40   9.162   9.162   0.000   5.146   0.084   0.000   0.084   0.769   0.000   0.769   0.000   0.000  378.17   93.97    0.00   93.97    0.00    0.00   0.433   0.203   0.073   0.029   0.010   0.006   0.011   0.004   0.000
 2020 177    48  26.00  37.10  17.80  10.893  10.893   0.000   5.609   0.067   0.000   0.067   0.724   0.000   0.724   0.000   0.000  389.07   94.70    0.00   94.70    0.00    0.00   0.390   0.201   0.073   0.029   0.010   0.006   0.011   0.004   0.000
 2020 178    49  27.60  36.80  18.20   8.176   8.176   0.000   3.826   0.084   0.000   0.084   0.684   0.000   0.684   0.000   0.000  397.24   95.38    0.00   95.38    0.00    0.00   0.351   0.200   0.073   0.029   0.010   0.006   0.011   0.004   0.000
 2020 179    50  25.70  36.70  17.70   8.501   8.501   0.000   3.584   0.076   0.000   0.076   0.648   0.000   0.648   0.000   0.000  405.74   96.03    0.00   96.03    0.00    0.00   0.316   0.199   0.073   0.029   0.010   0.006   0.011   0.004   0.000
 2020 180    51  26.80  37.40  18.00   8.790   8.790   0.000   3.361   0.070   0.000   0.070   0.615   0.000   0.615   0.000   0.000  414.53   96.65    0.00   96.65    0.00    0.00   0.285   0.198   0.073   0.029   0.010   0.006   0.011   0.004   0.000
 2020 181    52  28.00  39.80  20.80  10.791  10.791   0.000   3.713   0.054   0.000   0.054   0.585   0.000   0.585   0.000   0.000  425.32   97.23    0.00   97.23    0.00    0.00   0.257   0.196   0.073   0.029   0.010   0.006   0.011   0.004   0.000
 2020 182    53  28.10  37.20  16.20   9.518   9.518   0.000   2.965   0.059   0.000   0.059   0.558   0.000   0.558   0.000   0.000  434.84   97.79    0.00   97.79    0.00    0.00   0.231   0.195   0.073   0.029   0.010   0.006   0.011   0.004   0.000
 2020 183    54  26.00  33.30  17.50   7.923   7.923   0.000   2.307   0.067   0.000   0.067   0.534   0.000   0.534   0.000   0.000  442.77   98.32    0.00   98.32    0.00    0.00   0.208   0.194   0.073   0.029   0.010   0.006   0.011   0.004   0.000
 2020 184    55  22.60  37.30  18.10   8.141   8.141   0.000   2.256   0.063   0.000   0.063   0.512   0.000   0.512   0.000   0.000  450.91   98.84    0.00   98.84    0.00    0.00   0.188   0.192   0.072   0.029   0.010   0.006   0.011   0.004   0.000
 2020 185    56  24.90  35.10  15.00   7.367   7.367   0.000   1.947   0.067   0.000   0.067   0.492   0.000   0.492   0.000   0.000  458.27   99.33    0.00   99.33    0.00    0.00   0.169   0.191   0.072   0.029   0.010   0.006   0.011   0.004   0.000
 2020 186    57  25.70  33.90  15.60   6.792   6.792   0.000   1.736   0.070   0.000   0.070   0.474   0.000   0.474   0.000   0.000  465.07   99.80    0.00   99.80    0.00    0.00   0.152   0.190   0.072   0.029   0.010   0.006   0.011   0.004   0.000
 2020 187    58  14.80  30.60  18.00   4.274   4.274   0.000   1.062   0.107   0.000   0.107   0.457   0.000   0.457   0.000   0.000  469.34  100.26    0.00  100.26    0.00    0.00   0.137   0.189   0.072   0.029   0.010   0.006   0.011   0.004   0.000
 2020 188    59  26.40  33.30  15.00   6.303   6.303   0.000   1.531   0.070   0.000   0.070   0.442   0.000   0.442   0.000   0.000  475.64  100.70    0.00  100.70    0.00    0.00   0.123   0.187   0.072   0.029   0.010   0.006   0.011   0.004   0.000
 2020 189    60  27.40  34.40  18.40   7.887   7.887   0.000   1.878   0.054   0.000   0.054   0.429   0.000   0.429   0.000   0.000  483.53  101.13    0.00  101.13    0.00    0.00   0.111   0.186   0.072   0.029   0.010   0.006   0.011   0.004   0.000
 2020 190    61  27.90  38.70  19.80  10.053  10.053   0.000   2.335   0.041   0.000   0.041   0.416   0.000   0.416   0.000   0.000  493.58  101.55    0.00  101.55    0.00    0.00   0.100   0.185   0.072   0.029   0.010   0.006   0.011   0.004   0.000
 2020 191    62  25.60  32.80  21.40   7.135   7.135   0.000   1.610   0.057   0.000   0.057   0.405   0.000   0.405   0.000   0.000  500.72  101.95    0.00  101.95    0.00    0.00   0.090   0.184   0.072   0.029   0.010   0.006   0.011   0.004   0.000
 2020 192    63  16.60  32.30  21.40   5.639   5.639   0.000   1.245   0.070   0.000   0.070   0.395   0.000   0.395   0.000   0.000  506.36  102.35    0.00  102.35    0.00    0.00   0.081   0.183   0.072   0.029   0.009   0.006   0.011   0.004   0.000
 2020 193    64  27.20  35.70  17.30   7.617   7.617   0.000   1.653   0.051   0.000   0.051   0.385   0.000   0.385   0.000   0.000  513.98  102.73    0.00  102.73    0.00    0.00   0.073   0.181   0.072   0.029   0.009   0.006   0.011   0.004   0.000
 2020 194    65  23.40  34.20  18.20   6.628   6.628   0.000   1.300   0.057   0.000   0.057   0.377   0.000   0.377   0.000   0.000  520.60  103.11    0.00  103.11    0.00    0.00   0.066   0.180   0.071   0.029   0.009   0.006   0.011   0.004   0.000
 2020 195    66  26.10  32.90  17.50   7.511   7.511   0.000   1.428   0.049   0.000   0.049   0.369   0.000   0.369   0.000   0.000  528.11  103.48    0.00  103.48    0.00    0.00   0.059   0.179   0.071   0.029   0.009   0.006   0.011   0.004   0.000
 2020 196    67  18.90  31.80  20.10   5.662   5.662   0.000   1.079   0.086   0.000   0.086   0.486   0.000   0.486   0.000   0.000  533.78  103.96    0.00  103.96    0.00    0.00   0.178   0.178   0.071   0.029   0.009   0.006   0.011   0.004   0.000
 2020 197    68  19.90  28.60  18.50   4.773   4.773   0.000   0.920   0.124   0.000   0.124   0.591   0.000   0.591   0.000   0.000  538.55  104.55    0.00  104.55    0.00    0.00   0.284   0.177   0.071   0.029   0.009   0.006   0.011   0.004   0.000
 2020 198    69  24.40  32.20  18.50   6.246   6.246   0.000   1.232   0.090   0.000   0.090   0.562   0.000   0.562   0.000   0.000  544.80  105.12    0.00  105.12    0.00    0.00   0.256   0.176   0.071   0.029   0.009   0.006   0.011   0.004   0.000
 2020 199    70  23.10  35.60  20.40   7.448   7.448   0.000   1.502   0.103   0.000   0.103   0.764   0.000   0.764   0.000   0.000  552.24  105.88    0.00  105.88    0.00    0.00   0.459   0.174   0.071   0.029   0.009   0.006   0.011   0.004   0.000
 2020 200    71  20.40  35.90  21.20   6.353   6.353   0.000   1.307   0.206   0.000   0.206   1.307   0.000   1.307   0.000   0.000  558.60  107.19    0.00  107.19    0.00    0.00   1.034   0.156   0.064   0.026   0.009   0.006   0.010   0.004   0.000
 2020 201    72  20.90  29.60  18.90   5.583   5.583   0.000   1.173   0.210   0.000   0.210   1.173   0.000   1.173   0.000   0.000  564.18  108.36    0.00  108.36    0.00    0.00   0.983   0.108   0.044   0.018   0.006   0.004   0.007   0.002   0.000
 2020 202    73  26.50  31.00  18.00   6.514   6.514   0.000   1.402   0.215   0.000   0.215   1.402   0.000   1.402   0.000   0.000  570.69  109.76    0.00  109.76    0.00    0.00   1.164   0.135   0.056   0.023   0.007   0.005   0.009   0.003   0.000
 2020 203    74  27.00  29.80  15.60   6.052   6.052   0.000   1.333   0.220   0.000   0.220   1.333   0.000   1.333   0.000   0.000  576.75  111.09    0.00  111.09    0.00    0.00   1.092   0.137   0.057   0.023   0.008   0.005   0.009   0.003   0.000
 2020 204    75  26.70  33.30  18.40   7.159   7.159   0.000   1.617   0.217   0.000   0.217   1.551   0.000   1.551   0.000   0.000  583.90  112.64    0.00  112.64    0.00    0.00   1.252   0.170   0.071   0.029   0.009   0.006   0.011   0.004   0.000
 2020 205    76  24.20  33.50  20.00   7.101   7.101   0.000   1.635   0.201   0.000   0.201   1.425   0.000   1.425   0.000   0.000  591.01  114.07    0.00  114.07    0.00    0.00   1.127   0.169   0.070   0.028   0.009   0.006   0.011   0.004   0.000
 2020 206    77  26.10  34.70  20.80   7.666   7.666   0.000   1.795   0.171   0.000   0.171   1.312   0.000   1.312   0.000   0.000  598.67  115.38    0.00  115.38    0.00    0.00   1.015   0.168   0.070   0.028   0.009   0.006   0.011   0.004   0.000
 2020 207    78  26.10  35.40  21.00   7.810   7.810   0.000   1.855   0.155   0.000   0.155   1.210   0.000   1.210   0.000   0.000  606.48  116.59    0.00  116.59    0.00    0.00   0.914   0.166   0.070   0.028   0.009   0.006   0.011   0.004   0.000
 2020 208    79  20.20  35.80  19.40   6.195   6.195   0.000   1.490   0.240   0.000   0.240   1.490   0.000   1.490   0.000   0.000  612.68  118.08    0.00  118.08    0.00    0.00   0.038   0.088   0.143   0.147   0.091   0.090   0.442   0.451   0.000
 2020 209    80  12.60  26.40  20.00   2.917   2.917   0.000   0.710   0.243   0.000   0.243   0.710   0.000   0.710   0.000   0.000  615.59  118.79    0.00  118.79    0.00    0.00   0.165   0.121   0.102   0.073   0.038   0.033   0.104   0.074   0.000
 2020 210    81  12.00  25.50  19.70   2.739   2.739   0.000   0.678   0.247   0.000   0.247   0.678   0.000   0.678   0.000   0.000  618.33  119.47    0.00  119.47    0.00    0.00   0.153   0.114   0.097   0.069   0.036   0.033   0.104   0.072   0.000
 2020 211    82  22.90  32.00  18.50   5.161   5.161   0.000   1.326   0.257   0.000   0.257   1.326   0.000   1.326   0.000   0.000  623.49  120.80    0.00  120.80    0.00    0.00   0.302   0.224   0.189   0.134   0.069   0.065   0.205   0.138   0.000
 2020 212    83  20.50  25.90  16.00   4.373   4.373   0.000   1.165   0.266   0.000   0.266   1.165   0.000   1.165   0.000   0.000  627.87  121.96    0.00  121.96    0.00    0.00   0.261   0.196   0.166   0.118   0.061   0.058   0.182   0.122   0.000
 2020 213    84  25.70  28.90  14.00   5.147   5.147   0.000   1.418   0.276   0.000   0.276   1.418   0.000   1.418   0.000   0.000  633.01  123.38    0.00  123.38    0.00    0.00   0.045   0.090   0.134   0.134   0.085   0.093   0.428   0.410   0.000
 2020 214    85  25.80  31.00  13.40   5.323   5.323   0.000   1.517   0.285   0.000   0.285   1.517   0.000   1.517   0.000   0.000  638.34  124.90    0.00  124.90    0.00    0.00   0.048   0.096   0.143   0.143   0.090   0.099   0.462   0.437   0.000
 2020 215    86  21.40  27.30  15.80   4.558   4.558   0.000   1.342   0.294   0.000   0.294   1.342   0.000   1.342   0.000   0.000  642.90  126.24    0.00  126.24    0.00    0.00   0.043   0.085   0.126   0.126   0.079   0.088   0.409   0.387   0.000
 2020 216    87  20.60  25.60  14.80   4.215   4.215   0.000   1.281   0.304   0.000   0.304   1.281   0.000   1.281   0.000   0.000  647.11  127.52    0.00  127.52    0.00    0.00   0.290   0.216   0.181   0.128   0.066   0.063   0.204   0.133   0.000
 2020 217    88  21.60  28.00  15.70   5.334   5.334   0.000   1.672   0.313   0.000   0.313   1.672   0.000   1.672   0.000   0.000  652.44  129.19    0.00  129.19    0.00    0.00   0.385   0.283   0.236   0.166   0.086   0.081   0.263   0.171   0.000
 2020 218    89  24.30  29.00  14.00   5.336   5.336   0.000   1.723   0.323   0.000   0.323   1.723   0.000   1.723   0.000   0.000  657.78  130.91    0.00  130.91    0.00    0.00   0.384   0.287   0.244   0.173   0.089   0.085   0.281   0.179   0.000
 2020 219    90  17.00  28.20  18.90   4.259   4.259   0.000   1.415   0.332   0.000   0.332   1.415   0.000   1.415   0.000   0.000  662.04  132.33    0.00  132.33    0.00    0.00   0.317   0.239   0.202   0.141   0.073   0.069   0.230   0.145   0.000
 2020 220    91  24.70  31.80  20.00   5.441   5.441   0.000   1.858   0.341   0.000   0.341   1.858   0.000   1.858   0.000   0.000  667.48  134.19    0.00  134.19    0.00    0.00   0.410   0.310   0.264   0.185   0.096   0.091   0.311   0.191   0.000
 2020 221    92  24.60  34.80  15.40   6.358   6.358   0.000   2.229   0.351   0.000   0.351   2.229   0.000   2.229   0.000   0.000  673.84  136.41    0.00  136.41    0.00    0.00   0.069   0.139   0.206   0.205   0.129   0.142   0.716   0.623   0.000
 2020 222    93  24.10  35.20  18.90   7.366   7.366   0.000   2.648   0.359   0.000   0.359   2.648   0.000   2.648   0.000   0.000  681.20  139.06    0.00  139.06    0.00    0.00   0.082   0.164   0.244   0.243   0.153   0.169   0.853   0.739   0.000
 2020 223    94  21.50  33.00  16.90   5.555   5.555   0.000   2.049   0.369   0.000   0.369   2.049   0.000   2.049   0.000   0.000  686.76  141.11    0.00  141.11    0.00    0.00   0.064   0.127   0.189   0.188   0.119   0.131   0.660   0.572   0.000
 2020 224    95  23.90  32.10  14.00   6.093   6.093   0.000   2.303   0.349   0.000   0.349   2.128   0.000   2.128   0.000   0.000  692.85  143.24    0.00  143.24    0.00    0.00   1.756   0.233   0.077   0.029   0.010   0.007   0.012   0.004   0.000
 2020 225    96  20.60  30.80  18.00   5.231   5.231   0.000   2.025   0.373   0.000   0.373   1.952   0.000   1.952   0.000   0.000  698.08  145.19    0.00  145.19    0.00    0.00   1.581   0.231   0.077   0.029   0.010   0.007   0.012   0.004   0.000
 2020 226    97  22.50  32.50  20.40   5.150   5.150   0.000   2.040   0.348   0.000   0.348   1.793   0.000   1.793   0.000   0.000  703.23  146.98    0.00  146.98    0.00    0.00   1.424   0.230   0.077   0.029   0.010   0.007   0.012   0.004   0.000
 2020 227    98  18.80  32.70  17.80   4.736   4.736   0.000   1.918   0.348   0.000   0.348   1.650   0.000   1.650   0.000   0.000  707.97  148.63    0.00  148.63    0.00    0.00   1.282   0.228   0.077   0.029   0.010   0.007   0.012   0.004   0.000
 2020 228    99  20.50  31.00  19.30   4.836   4.836   0.000   2.000   0.314   0.000   0.314   1.520   0.000   1.520   0.000   0.000  712.80  150.15    0.00  150.15    0.00    0.00   1.154   0.227   0.076   0.029   0.010   0.007   0.012   0.004   0.000
 2020 229   100  21.50  31.40  18.90   5.491   5.491   0.000   2.319   0.281   0.000   0.281   1.543   0.000   1.543   0.000   0.000  718.30  151.70    0.00  151.70    0.00    0.00   1.179   0.225   0.076   0.029   0.010   0.007   0.012   0.004   0.000
 2020 230   101  25.00  32.50  14.00   5.639   5.639   0.000   2.430   0.277   0.000   0.277   1.564   0.000   1.564   0.000   0.000  723.93  153.26    0.00  153.26    0.00    0.00   1.201   0.224   0.076   0.029   0.010   0.007   0.012   0.004   0.000
 2020 231   102  23.60  32.80  15.00   6.011   6.011   0.000   2.642   0.240   0.000   0.240   1.442   0.000   1.442   0.000   0.000  729.95  154.70    0.00  154.70    0.00    0.00   1.081   0.222   0.076   0.029   0.010   0.007   0.012   0.004   0.000
 2020 232   103  18.70  31.40  17.70   5.406   5.406   0.000   2.423   0.247   0.000   0.247   1.333   0.000   1.333   0.000   0.000  735.35  156.04    0.00  156.04    0.00    0.00   0.974   0.221   0.076   0.029   0.010   0.007   0.012   0.004   0.000
 2020 233   104  22.80  31.50  15.20   5.696   5.696   0.000   2.602   0.217   0.000   0.217   1.235   0.000   1.235   0.000   0.000  741.05  157.27    0.00  157.27    0.00    0.00   0.877   0.219   0.076   0.029   0.010   0.007   0.012   0.004   0.000
 2020 234   105  20.10  31.40  17.30   5.270   5.270   0.000   2.453   0.217   0.000   0.217   1.146   0.000   1.146   0.000   0.000  746.32  158.42    0.00  158.42    0.00    0.00   0.789   0.218   0.076   0.029   0.010   0.007   0.012   0.004   0.000
 2020 235   106  21.20  33.80  15.50   5.652   5.652   0.000   2.680   0.188   0.000   0.188   1.065   0.000   1.065   0.000   0.000  751.97  159.48    0.00  159.48    0.00    0.00   0.711   0.216   0.076   0.029   0.010   0.007   0.012   0.004   0.000
 2020 236   107  21.10  34.40  17.50   6.131   6.131   0.000   2.959   0.162   0.000   0.162   0.993   0.000   0.993   0.000   0.000  758.10  160.48    0.00  160.48    0.00    0.00   0.640   0.215   0.076   0.029   0.010   0.007   0.012   0.004   0.000
 2020 237   108  22.50  35.10  16.40   6.964   6.964   0.000   3.421   0.133   0.000   0.133   0.928   0.000   0.928   0.000   0.000  765.06  161.40    0.00  161.40    0.00    0.00   0.576   0.214   0.075   0.029   0.010   0.007   0.012   0.004   0.000
 2020 238   109  21.80  33.60  18.90   7.160   7.160   0.000   3.579   0.121   0.000   0.121   0.869   0.000   0.869   0.000   0.000  772.22  162.27    0.00  162.27    0.00    0.00   0.519   0.212   0.075   0.029   0.010   0.007   0.012   0.004   0.000
 2020 239   110  22.40  34.80  13.50   6.874   6.874   0.000   3.494   0.119   0.000   0.119   0.816   0.000   0.816   0.000   0.000  779.10  163.09    0.00  163.09    0.00    0.00   0.467   0.211   0.075   0.029   0.010   0.007   0.012   0.004   0.000
 2020 240   111  22.20  35.50  16.60   6.218   6.218   0.000   3.214   0.123   0.000   0.123   0.767   0.000   0.767   0.000   0.000  785.32  163.85    0.00  163.85    0.00    0.00   0.420   0.209   0.075   0.029   0.010   0.007   0.012   0.004   0.000
 2020 241   112  22.00  35.50  17.20   6.286   6.286   0.000   3.303   0.525   0.000   0.525   3.303   0.000   3.303   0.000   0.000  791.60  167.16    0.00  167.16    0.00    0.00   0.068   0.203   0.312   0.314   0.199   0.215   1.070   0.923   0.000
 2020 242   113  11.50  24.60  17.20   2.622   2.622   0.000   1.400   0.534   0.000   0.534   1.400   0.000   1.400   0.000   0.000  794.22  168.56    0.00  168.56    0.00    0.00   0.316   0.236   0.198   0.140   0.074   0.068   0.232   0.136   0.000
 2020 243   114  19.90  33.30  16.00   4.758   4.758   0.000   2.581   0.542   0.000   0.542   2.581   0.000   2.581   0.000   0.000  798.98  171.14    0.00  171.14    0.00    0.00   0.565   0.426   0.362   0.257   0.134   0.127   0.449   0.261   0.000
 2020 244   115  22.40  24.60  14.00   4.408   4.408   0.000   2.429   0.551   0.000   0.551   2.429   0.000   2.429   0.000   0.000  803.39  173.57    0.00  173.57    0.00    0.00   0.074   0.148   0.220   0.221   0.140   0.153   0.798   0.674   0.000
 2020 245   116  13.90  25.80  15.20   3.150   3.150   0.000   1.763   0.560   0.000   0.560   1.763   0.000   1.763   0.000   0.000  806.54  175.33    0.00  175.33    0.00    0.00   0.053   0.108   0.160   0.160   0.101   0.111   0.579   0.491   0.000
 2020 246   117  22.80  31.00  13.90   4.633   4.633   0.000   2.632   0.568   0.000   0.568   2.632   0.000   2.632   0.000   0.000  811.17  177.96    0.00  177.96    0.00    0.00   0.080   0.161   0.238   0.239   0.151   0.166   0.864   0.733   0.000
 2020 247   118  22.90  26.30  13.20   4.610   4.610   0.000   2.658   0.458   0.000   0.458   2.114   0.000   2.114   0.000   0.000  815.78  180.08    0.00  180.08    0.00    0.00   1.741   0.232   0.077   0.029   0.010   0.007   0.013   0.004   0.000
 2020 248   119  22.30  31.60   8.20   4.673   4.673   0.000   2.733   0.415   0.000   0.415   1.939   0.000   1.939   0.000   0.000  820.46  182.01    0.00  182.01    0.00    0.00   1.568   0.231   0.077   0.029   0.010   0.007   0.013   0.004   0.000
 2020 249   120  21.30  34.00  15.50   5.807   5.807   0.000   3.444   0.307   0.000   0.307   1.781   0.000   1.781   0.000   0.000  826.26  183.80    0.00  183.80    0.00    0.00   1.411   0.229   0.077   0.029   0.010   0.007   0.013   0.004   0.000
 2020 250   121  19.40  36.00  19.60   6.279   6.279   0.000   3.775   0.261   0.000   0.261   1.638   0.000   1.638   0.000   0.000  832.54  185.43    0.00  185.43    0.00    0.00   1.271   0.228   0.076   0.029   0.010   0.007   0.013   0.004   0.000
 2020 251   122  19.30  34.00  14.00   5.459   5.459   0.000   3.326   0.277   0.000   0.277   1.510   0.000   1.510   0.000   0.000  838.00  186.94    0.00  186.94    0.00    0.00   1.144   0.226   0.076   0.029   0.010   0.007   0.013   0.004   0.000
 2020 252   123   3.30  16.00   2.80   2.769   2.769   0.000   1.709   0.617   0.000   0.617   1.709   0.000   1.709   0.000   0.000  840.77  188.65    0.00  188.65    0.00    0.00   1.360   0.216   0.072   0.028   0.009   0.007   0.012   0.004   0.000
 2020 253   124   3.70   5.20   1.70   0.840   0.840   0.000   0.544   0.648   0.000   0.648   0.544   0.000   0.544   0.000   0.000  841.61  189.20    0.00  189.20    0.00    0.00   0.119   0.090   0.077   0.054   0.028   0.027   0.095   0.055   0.000
 2020 254   125   9.20  12.90   4.70   1.674   1.674   0.000   1.176   0.702   0.000   0.702   1.176   0.000   1.176   0.000   0.000  843.28  190.37    0.00  190.37    0.00    0.00   0.259   0.193   0.165   0.118   0.062   0.058   0.203   0.118   0.000
 2020 255   126  20.10  22.00   8.90   3.321   3.321   0.000   2.354   0.709   0.000   0.709   2.354   0.000   2.354   0.000   0.000  846.61  192.73    0.00  192.73    0.00    0.00   0.072   0.143   0.213   0.214   0.136   0.148   0.767   0.660   0.000
 2020 256   127  21.50  28.60   8.80   4.266   4.266   0.000   3.049   0.715   0.000   0.715   3.049   0.000   3.049   0.000   0.000  850.87  195.78    0.00  195.78    0.00    0.00   0.092   0.183   0.273   0.273   0.173   0.189   0.990   0.876   0.000
 2020 257   128  21.50  29.00   5.90   3.631   3.631   0.000   2.617   0.721   0.000   0.721   2.617   0.000   2.617   0.000   0.000  854.50  198.39    0.00  198.39    0.00    0.00   0.079   0.157   0.234   0.234   0.148   0.162   0.848   0.756   0.000
 2020 258   129  18.50  27.30   7.90   3.466   3.466   0.000   2.520   0.727   0.000   0.727   2.520   0.000   2.520   0.000   0.000  857.97  200.91    0.00  200.91    0.00    0.00   0.076   0.151   0.225   0.225   0.143   0.156   0.816   0.728   0.000
 2020 259   130  19.30  28.20   8.60   4.035   4.035   0.000   2.959   0.525   0.000   0.525   2.120   0.000   2.120   0.000   0.000  862.00  203.03    0.00  203.03    0.00    0.00   1.748   0.232   0.077   0.029   0.010   0.007   0.013   0.004   0.000
 2020 260   131  18.60  27.70   7.40   3.668   3.668   0.000   2.712   0.530   0.000   0.530   1.944   0.000   1.944   0.000   0.000  865.67  204.98    0.00  204.98    0.00    0.00   1.574   0.230   0.077   0.029   0.010   0.007   0.013   0.004   0.000
 2020 261   132  18.10  26.90   8.10   3.437   3.437   0.000   2.562   0.519   0.000   0.519   1.785   0.000   1.785   0.000   0.000  869.11  206.76    0.00  206.76    0.00    0.00   1.417   0.229   0.076   0.029   0.010   0.007   0.013   0.004   0.000
 2020 262   133  16.80  27.70   9.00   4.234   4.234   0.000   3.180   0.388   0.000   0.388   1.642   0.000   1.642   0.000   0.000  873.34  208.41    0.00  208.41    0.00    0.00   1.276   0.227   0.076   0.029   0.010   0.007   0.013   0.004   0.000
 2020 263   134  17.20  28.20   9.60   5.345   5.345   0.000   4.044   0.283   0.000   0.283   1.514   0.000   1.514   0.000   0.000  878.69  209.92    0.00  209.92    0.00    0.00   1.148   0.226   0.076   0.029   0.010   0.007   0.013   0.004   0.000
 2020 264   135  18.20  30.30  14.60   6.118   6.118   0.000   4.662   0.228   0.000   0.228   1.397   0.000   1.397   0.000   0.000  884.81  211.32    0.00  211.32    0.00    0.00   1.034   0.224   0.076   0.029   0.010   0.007   0.013   0.004   0.000
 2020 265   136  18.20  29.10  10.80   4.915   4.915   0.000   3.771   0.263   0.000   0.263   1.293   0.000   1.293   0.000   0.000  889.72  212.61    0.00  212.61    0.00    0.00   0.931   0.223   0.076   0.029   0.010   0.007   0.013   0.004   0.000
 2020 266   137  18.70  28.80   9.70   4.423   4.423   0.000   3.416   0.271   0.000   0.271   1.198   0.000   1.198   0.000   0.000  894.14  213.81    0.00  213.81    0.00    0.00   0.838   0.221   0.076   0.029   0.010   0.007   0.013   0.004   0.000
 2020 267   138  17.40  29.20  13.00   3.997   3.997   0.000   3.107   0.278   0.000   0.278   1.113   0.000   1.113   0.000   0.000  898.14  214.92    0.00  214.92    0.00    0.00   0.754   0.220   0.076   0.029   0.010   0.007   0.013   0.004   0.000
 2020 268   139  18.50  34.60  10.60   4.123   4.123   0.000   3.225   0.251   0.000   0.251   1.036   0.000   1.036   0.000   0.000  902.26  215.96    0.00  215.96    0.00    0.00   0.679   0.218   0.076   0.029   0.010   0.007   0.013   0.004   0.000
 2020 269   140  18.70  36.80  10.50   5.207   5.207   0.000   4.097   0.186   0.000   0.186   0.967   0.000   0.967   0.000   0.000  907.47  216.92    0.00  216.92    0.00    0.00   0.611   0.217   0.076   0.029   0.010   0.007   0.013   0.004   0.000
 2020 270   141  16.50  34.10  11.30   4.257   4.257   0.000   3.368   0.212   0.000   0.212   0.904   0.000   0.904   0.000   0.000  911.73  217.83    0.00  217.83    0.00    0.00   0.550   0.215   0.075   0.029   0.010   0.007   0.013   0.004   0.000
 2020 271   142  15.80  21.70  12.50   5.134   5.134   0.000   4.085   0.165   0.000   0.165   0.848   0.000   0.848   0.000   0.000  916.86  218.68    0.00  218.68    0.00    0.00   0.496   0.214   0.075   0.029   0.010   0.007   0.013   0.004   0.000
 2020 272   143  19.00  20.10   3.50   4.245   4.245   0.000   3.378   0.188   0.000   0.188   0.797   0.000   0.797   0.000   0.000  921.11  219.47    0.00  219.47    0.00    0.00   0.446   0.213   0.075   0.029   0.010   0.007   0.013   0.004   0.000
 2020 273   144  18.60  29.00   3.10   4.301   4.301   0.000   3.422   0.175   0.000   0.175   0.751   0.000   0.751   0.000   0.000  925.41  220.22    0.00  220.22    0.00    0.00   0.402   0.211   0.075   0.029   0.010   0.007   0.013   0.004   0.000
 2020 274   145  17.60  26.20   6.00   4.174   4.174   0.000   3.321   0.170   0.000   0.170   0.709   0.000   0.709   0.000   0.000  929.58  220.93    0.00  220.93    0.00    0.00   0.362   0.210   0.075   0.029   0.010   0.007   0.013   0.004   0.000
 2020 275   146  17.70  20.40   2.80   3.073   3.073   0.000   2.446   0.219   0.000   0.219   0.672   0.000   0.672   0.000   0.000  932.66  221.60    0.00  221.60    0.00    0.00   0.326   0.208   0.075   0.029   0.010   0.007   0.013   0.004   0.000
 2020 276   147  17.10  26.80   2.50   3.497   3.497   0.000   2.783   0.182   0.000   0.182   0.638   0.000   0.638   0.000   0.000  936.15  222.24    0.00  222.24    0.00    0.00   0.293   0.207   0.075   0.029   0.010   0.007   0.013   0.004   0.000
 2020 277   148  15.50  22.00   4.00   3.711   3.711   0.000   2.953   0.164   0.000   0.164   0.607   0.000   0.607   0.000   0.000  939.86  222.85    0.00  222.85    0.00    0.00   0.264   0.206   0.075   0.029   0.010   0.007   0.013   0.004   0.000
