*MANAGEMENT OPERATIONS DAILY OUTPUT FILE

*DSSAT Cropping System Model Ver. 4.7.5.035 -develop  JUN 10, 2021 14:49:00

*RUN   1        : 20 IRRIG, light rate,freq MZCER047 KSRT2001    1
 MODEL          : MZCER047 - Maize
 EXPERIMENT     : KSRT2001 SB ARM 2020 KS, IRRIGATED & NON-IRRIGATED
 DATA PATH      :
 TREATMENT  1   : 20 IRRIG, light rate,freq MZCER047
  

@YEAR DOY   DAS   DAP  IR#C  IRRC  TL#C  TLDD DLYR3   TLBD  NAPC  NICM  R#AC RESNC RESPC
 2020 130     1     0     0     0     0     0    29  1.216     0     0     0     0     0
 2020 131     2     0     0     0     0     0    29  1.216     0     0     0     0     0
 2020 132     3     0     0     0     0     0    29  1.216     0     0     0     0     0
 2020 133     4     0     0     0     0     0    29  1.216     0     0     0     0     0
 2020 134     5     0     0     0     0     0    29  1.216     0     0     0     0     0
 2020 135     6     0     0     0     0     0    29  1.216     0     0     0     0     0
 2020 136     7     0     0     0     0     0    29  1.216     0     0     0     0     0
 2020 137     8     0     0     0     0     0    29  1.216     0     0     0     0     0
 2020 138     9     0     0     0     0     0    29  1.216     0     0     0     0     0
 2020 139    10     0     0     0     0     0    29  1.216     0     0     0     0     0
 2020 140    11     0     0     0     0     0    29  1.216     0     0     0     0     0
 2020 141    12     0     0     0     0     0    29  1.216     0     0     0     0     0
 2020 142    13     0     0     0     0     0    29  1.216     0     0     0     0     0
 2020 143    14     0     0     0     0     0    29  1.216     0     0     0     0     0
 2020 144    15     0     0     0     0     0    29  1.216     0     0     0     0     0
 2020 145    16     0     0     0     0     0    29  1.216     0     0     0     0     0
 2020 146    17     0     0     0     0     0    29  1.216     0     0     0     0     0
 2020 147    18     0     0     0     0     0    29  1.216     0     0     0     0     0
 2020 148    19     0     0     0     0     0    29  1.216     0     0     0     0     0
 2020 149    20     0     0     0     0     0    29  1.216     0     0     0     0     0
 2020 150    21     0     0     0     0     0    29  1.216     0     0     0     0     0
 2020 151    22     0     1    95     0     0    29  1.216     0     0     0     0     0
 2020 152    23     1     1    95     0     0    29  1.216     0     0     0     0     0
 2020 153    24     2     1    95     0     0    29  1.216     0     0     0     0     0
 2020 154    25     3     1    95     0     0    29  1.216     0     0     0     0     0
 2020 155    26     4     1    95     0     0    29  1.216     0     0     0     0     0
 2020 156    27     5     1    95     0     0    29  1.216     0     0     0     0     0
 2020 157    28     6     1    95     0     0    29  1.216     0     0     0     0     0
 2020 158    29     7     1    95     0     0    29  1.216     0     0     0     0     0
 2020 159    30     8     1    95     0     0    29  1.216     0     0     0     0     0
 2020 160    31     9     1    95     0     0    29  1.216     0     0     0     0     0
 2020 161    32    10     1    95     0     0    29  1.216     0     0     0     0     0
 2020 162    33    11     1    95     0     0    29  1.216     0     0     0     0     0
 2020 163    34    12     1    95     0     0    29  1.216     0     0     0     0     0
 2020 164    35    13     1    95     0     0    29  1.216     0     0     0     0     0
 2020 165    36    14     1    95     0     0    29  1.216     0     0     0     0     0
 2020 166    37    15     1    95     0     0    29  1.216     0     0     1     8     2
 2020 167    38    16     1    95     0     0    29  1.215     0     0     1     8     2
 2020 168    39    17     1    95     0     0    29  1.214     0     0     1     8     2
 2020 169    40    18     1    95     0     0    29  1.214     0     0     1     8     2
 2020 170    41    19     1    95     0     0    29  1.214     0     0     1     8     2
 2020 171    42    20     1    95     0     0    29  1.214     0     0     1     8     2
 2020 172    43    21     1    95     0     0    29  1.214     0     0     1     8     2
 2020 173    44    22     1    95     0     0    29  1.214     0     0     1     8     2
 2020 174    45    23     1    95     0     0    29  1.214     0     0     1     8     2
 2020 175    46    24     1    95     0     0    29  1.214     0     0     1     8     2
 2020 176    47    25     1    95     0     0    29  1.215     0     0     1     8     2
 2020 177    48    26     1    95     0     0    29  1.215     0     0     1     8     2
 2020 178    49    27     1    95     0     0    29  1.215     0     0     1     8     2
 2020 179    50    28     1    95     0     0    29  1.215     0     0     1     8     2
 2020 180    51    29     1    95     0     0    29  1.215     0     0     1     8     2
 2020 181    52    30     1    95     0     0    29  1.215     0     0     1     8     2
 2020 182    53    31     1    95     0     0    29  1.215     0     0     1     8     2
 2020 183    54    32     1    95     0     0    29  1.215     0     0     1     8     2
 2020 184    55    33     1    95     0     0    29  1.215     0     0     1     8     2
 2020 185    56    34     1    95     0     0    29  1.215     0     0     1     8     2
 2020 186    57    35     1    95     0     0    29  1.215     0     0     1     8     2
 2020 187    58    36     1    95     0     0    29  1.215     0     0     1     8     2
 2020 188    59    37     1    95     0     0    29  1.215     0     0     1     8     2
 2020 189    60    38     1    95     0     0    29  1.215     0     0     1     8     2
 2020 190    61    39     1    95     0     0    29  1.215     0     0     1     8     2
 2020 191    62    40     1    95     0     0    29  1.215     0     0     1     8     2
 2020 192    63    41     1    95     0     0    29  1.215     0     0     1     8     2
 2020 193    64    42     1    95     0     0    29  1.215     0     0     1     8     2
 2020 194    65    43     1    95     0     0    29  1.215     0     0     1     8     2
 2020 195    66    44     1    95     0     0    29  1.215     0     0     1     8     2
 2020 196    67    45     1    95     0     0    29  1.215     0     0     1     8     2
 2020 197    68    46     1    95     0     0    29  1.215     0     0     1     8     2
 2020 198    69    47     1    95     0     0    29  1.215     0     0     1     8     2
 2020 199    70    48     1    95     0     0    29  1.215     0     0     1     8     2
 2020 200    71    49     1    95     0     0    29  1.215     0     0     1     8     2
 2020 201    72    50     1    95     0     0    29  1.215     0     0     1     8     2
 2020 202    73    51     1    95     0     0    29  1.215     0     0     1     8     2
 2020 203    74    52     1    95     0     0    29  1.215     0     0     1     8     2
 2020 204    75    53     1    95     0     0    29  1.215     0     0     1     8     2
 2020 205    76    54     1    95     0     0    29  1.215     0     0     1     8     2
 2020 206    77    55     1    95     0     0    29  1.215     0     0     1     8     2
 2020 207    78    56     1    95     0     0    29  1.216     0     0     1     8     2
 2020 208    79    57     1    95     0     0    29  1.216     0     0     1     8     2
 2020 209    80    58     1    95     0     0    29  1.216     0     0     1     8     2
 2020 210    81    59     1    95     0     0    29  1.216     0     0     1     8     2
 2020 211    82    60     1    95     0     0    29  1.216     0     0     1     8     2
 2020 212    83    61     1    95     0     0    29  1.216     0     0     1     8     2
 2020 213    84    62     1    95     0     0    29  1.216     0     0     1     8     2
 2020 214    85    63     1    95     0     0    29  1.216     0     0     1     8     2
 2020 215    86    64     1    95     0     0    29  1.216     0     0     1     8     2
 2020 216    87    65     1    95     0     0    29  1.216     0     0     1     8     2
 2020 217    88    66     1    95     0     0    29  1.216     0     0     1     8     2
 2020 218    89    67     1    95     0     0    29  1.216     0     0     1     8     2
 2020 219    90    68     1    95     0     0    29  1.216     0     0     1     8     2
 2020 220    91    69     1    95     0     0    29  1.216     0     0     1     8     2
 2020 221    92    70     1    95     0     0    29  1.216     0     0     1     8     2
 2020 222    93    71     1    95     0     0    29  1.216     0     0     1     8     2
 2020 223    94    72     1    95     0     0    29  1.216     0     0     1     8     2
 2020 224    95    73     1    95     0     0    29  1.216     0     0     1     8     2
 2020 225    96    74     1    95     0     0    29  1.216     0     0     1     8     2
 2020 226    97    75     1    95     0     0    29  1.216     0     0     1     8     2
 2020 227    98    76     1    95     0     0    29  1.216     0     0     1     8     2
 2020 228    99    77     1    95     0     0    29  1.216     0     0     1     8     2
 2020 229   100    78     1    95     0     0    29  1.216     0     0     1     8     2
 2020 230   101    79     1    95     0     0    29  1.216     0     0     1     8     2
 2020 231   102    80     1    95     0     0    29  1.216     0     0     1     8     2
 2020 232   103    81     1    95     0     0    29  1.216     0     0     1     8     2
 2020 233   104    82     1    95     0     0    29  1.216     0     0     1     8     2
 2020 234   105    83     1    95     0     0    29  1.216     0     0     1     8     2
 2020 235   106    84     1    95     0     0    29  1.216     0     0     1     8     2
 2020 236   107    85     1    95     0     0    29  1.216     0     0     1     8     2
 2020 237   108    86     1    95     0     0    29  1.216     0     0     1     8     2
 2020 238   109    87     1    95     0     0    29  1.216     0     0     1     8     2
 2020 239   110    88     1    95     0     0    29  1.216     0     0     1     8     2
 2020 240   111    89     1    95     0     0    29  1.216     0     0     1     8     2
 2020 241   112    90     1    95     0     0    29  1.216     0     0     1     8     2
 2020 242   113    91     1    95     0     0    29  1.216     0     0     1     8     2
 2020 243   114    92     1    95     0     0    29  1.216     0     0     1     8     2
 2020 244   115    93     1    95     0     0    29  1.216     0     0     1     8     2
 2020 245   116    94     1    95     0     0    29  1.216     0     0     1     8     2
 2020 246   117    95     1    95     0     0    29  1.216     0     0     1     8     2
 2020 247   118    96     1    95     0     0    29  1.216     0     0     1     8     2
 2020 248   119    97     1    95     0     0    29  1.216     0     0     1     8     2
 2020 249   120    98     1    95     0     0    29  1.216     0     0     1     8     2
 2020 250   121    99     1    95     0     0    29  1.216     0     0     1     8     2
 2020 251   122   100     1    95     0     0    29  1.216     0     0     1     8     2
 2020 252   123   101     1    95     0     0    29  1.216     0     0     1     8     2
 2020 253   124   102     1    95     0     0    29  1.216     0     0     1     8     2
 2020 254   125   103     1    95     0     0    29  1.216     0     0     1     8     2
 2020 255   126   104     1    95     0     0    29  1.216     0     0     1     8     2
 2020 256   127   105     1    95     0     0    29  1.216     0     0     1     8     2
 2020 257   128   106     1    95     0     0    29  1.216     0     0     1     8     2
 2020 258   129   107     1    95     0     0    29  1.216     0     0     1     8     2
 2020 259   130   108     1    95     0     0    29  1.216     0     0     1     8     2
 2020 260   131   109     1    95     0     0    29  1.216     0     0     1     8     2
 2020 261   132   110     1    95     0     0    29  1.216     0     0     1     8     2
 2020 262   133   111     1    95     0     0    29  1.216     0     0     1     8     2
 2020 263   134   112     1    95     0     0    29  1.216     0     0     1     8     2
 2020 264   135   113     1    95     0     0    29  1.216     0     0     1     8     2
 2020 265   136   114     1    95     0     0    29  1.216     0     0     1     8     2
 2020 266   137   115     1    95     0     0    29  1.216     0     0     1     8     2
 2020 267   138   116     1    95     0     0    29  1.216     0     0     1     8     2
 2020 268   139   117     1    95     0     0    29  1.216     0     0     1     8     2
 2020 269   140   118     1    95     0     0    29  1.216     0     0     1     8     2
 2020 270   141   119     1    95     0     0    29  1.216     0     0     1     8     2
 2020 271   142   120     1    95     0     0    29  1.216     0     0     1     8     2
 2020 272   143   121     1    95     0     0    29  1.216     0     0     1     8     2
 2020 273   144   122     1    95     0     0    29  1.216     0     0     1     8     2
 2020 274   145   123     1    95     0     0    29  1.216     0     0     1     8     2
 2020 275   146   124     1    95     0     0    29  1.216     0     0     1     8     2
 2020 276   147   125     1    95     0     0    29  1.216     0     0     1     8     2
 2020 277   148   126     1    95     0     0    29  1.216     0     0     1     8     2
