*MANAGEMENT OPERATIONS DAILY OUTPUT FILE

*DSSAT Cropping System Model Ver. 4.7.5.035 -develop  JUN 11, 2021 16:21:59

*RUN   1        : 20 IRRIG, PETPEN NO KCB.. MZCER047 KSRT2001    1
 MODEL          : MZCER047 - Maize
 EXPERIMENT     : KSRT2001 SB ARM 2020 KS, IRRIGATED & NON-IRRIGATED
 DATA PATH      :
 TREATMENT  1   : 20 IRRIG, PETPEN NO KCB.. MZCER047
  

@YEAR DOY   DAS   DAP  IR#C  IRRC  TL#C  TLDD DLYR3   TLBD  NAPC  NICM  R#AC RESNC RESPC
 2020 106     1     0     0     0     0     0    29  1.216     0     0     0     0     0
 2020 107     2     0     0     0     0     0    29  1.216     0     0     0     0     0
 2020 108     3     0     0     0     0     0    29  1.216     0     0     0     0     0
 2020 109     4     0     0     0     0     0    29  1.216     0     0     0     0     0
 2020 110     5     0     0     0     0     0    29  1.216     0     0     0     0     0
 2020 111     6     0     0     0     0     0    29  1.216     0     0     0     0     0
 2020 112     7     0     0     0     0     0    29  1.216     0     0     0     0     0
 2020 113     8     0     0     0     0     0    29  1.216     0     0     0     0     0
 2020 114     9     0     0     0     0     0    29  1.216     0     0     0     0     0
 2020 115    10     0     0     0     0     0    29  1.216     0     0     0     0     0
 2020 116    11     0     0     0     0     0    29  1.216     0     0     0     0     0
 2020 117    12     0     0     0     0     0    29  1.216     0     0     0     0     0
 2020 118    13     0     0     0     0     0    29  1.216     0     0     0     0     0
 2020 119    14     0     0     0     0     0    29  1.216     0     0     0     0     0
 2020 120    15     0     0     0     0     0    29  1.216     0     0     0     0     0
 2020 121    16     0     0     0     0     0    29  1.216     0     0     0     0     0
 2020 122    17     0     0     0     0     0    29  1.216     0     0     0     0     0
 2020 123    18     0     0     0     0     0    29  1.216     0     0     0     0     0
 2020 124    19     0     0     0     0     0    29  1.216     0     0     0     0     0
 2020 125    20     0     0     0     0     0    29  1.216     0     0     0     0     0
 2020 126    21     0     0     0     0     0    29  1.216     0     0     0     0     0
 2020 127    22     0     0     0     0     0    29  1.216     0     0     0     0     0
 2020 128    23     0     0     0     0     0    29  1.216     0     0     0     0     0
 2020 129    24     0     0     0     0     0    29  1.216     0     0     0     0     0
 2020 130    25     0     0     0     0     0    29  1.216     0     0     0     0     0
 2020 131    26     0     0     0     0     0    29  1.216     0     0     0     0     0
 2020 132    27     0     0     0     0     0    29  1.216     0     0     0     0     0
 2020 133    28     0     0     0     0     0    29  1.216     0     0     0     0     0
 2020 134    29     0     0     0     0     0    29  1.216     0     0     0     0     0
 2020 135    30     0     0     0     0     0    29  1.216     0     0     0     0     0
 2020 136    31     0     0     0     0     0    29  1.216     0     0     0     0     0
 2020 137    32     0     0     0     0     0    29  1.216     0     0     0     0     0
 2020 138    33     0     0     0     0     0    29  1.216     0     0     0     0     0
 2020 139    34     0     0     0     0     0    29  1.216     0     0     0     0     0
 2020 140    35     0     0     0     0     0    29  1.216     0     0     0     0     0
 2020 141    36     0     0     0     0     0    29  1.216     0     0     0     0     0
 2020 142    37     0     0     0     0     0    29  1.216     0     0     0     0     0
 2020 143    38     0     0     0     0     0    29  1.216     0     0     0     0     0
 2020 144    39     0     0     0     0     0    29  1.216     0     0     0     0     0
 2020 145    40     0     0     0     0     0    29  1.216     0     0     0     0     0
 2020 146    41     0     0     0     0     0    29  1.216     0     0     0     0     0
 2020 147    42     0     0     0     0     0    29  1.216     0     0     0     0     0
 2020 148    43     0     0     0     0     0    29  1.216     0     0     0     0     0
 2020 149    44     0     0     0     0     0    29  1.216     0     0     0     0     0
 2020 150    45     0     0     0     0     0    29  1.216     0     0     0     0     0
 2020 151    46     0     0     0     0     0    29  1.216     0     0     0     0     0
 2020 152    47     1     0     0     0     0    29  1.216     0     0     0     0     0
 2020 153    48     2     0     0     0     0    29  1.216     0     0     0     0     0
 2020 154    49     3     0     0     0     0    29  1.216     0     0     0     0     0
 2020 155    50     4     0     0     0     0    29  1.216     0     0     0     0     0
 2020 156    51     5     0     0     0     0    29  1.216     0     0     0     0     0
 2020 157    52     6     0     0     0     0    29  1.216     0     0     0     0     0
 2020 158    53     7     0     0     0     0    29  1.216     0     0     0     0     0
 2020 159    54     8     0     0     0     0    29  1.216     0     0     0     0     0
 2020 160    55     9     0     0     0     0    29  1.216     0     0     0     0     0
 2020 161    56    10     0     0     0     0    29  1.216     0     0     0     0     0
 2020 162    57    11     0     0     0     0    29  1.216     0     0     0     0     0
 2020 163    58    12     0     0     0     0    29  1.216     0     0     0     0     0
 2020 164    59    13     0     0     0     0    29  1.216     0     0     0     0     0
 2020 165    60    14     0     0     0     0    29  1.216     0     0     0     0     0
 2020 166    61    15     0     0     0     0    29  1.216     0     0     0     0     0
 2020 167    62    16     0     0     0     0    29  1.216     0     0     0     0     0
 2020 168    63    17     0     0     0     0    29  1.216     0     0     0     0     0
 2020 169    64    18     1   115     0     0    29  1.216     0     0     0     0     0
 2020 170    65    19     1   115     0     0    29  1.216     0     0     0     0     0
 2020 171    66    20     1   115     0     0    29  1.216     0     0     0     0     0
 2020 172    67    21     1   115     0     0    29  1.216     0     0     0     0     0
 2020 173    68    22     1   115     0     0    29  1.216     0     0     0     0     0
 2020 174    69    23     1   115     0     0    29  1.216     0     0     0     0     0
 2020 175    70    24     1   115     0     0    29  1.216     0     0     0     0     0
 2020 176    71    25     1   115     0     0    29  1.216     0     0     0     0     0
 2020 177    72    26     1   115     0     0    29  1.216     0     0     0     0     0
 2020 178    73    27     1   115     0     0    29  1.216     0     0     0     0     0
 2020 179    74    28     1   115     0     0    29  1.216     0     0     0     0     0
 2020 180    75    29     1   115     0     0    29  1.216     0     0     0     0     0
 2020 181    76    30     1   115     0     0    29  1.216     0     0     0     0     0
 2020 182    77    31     1   115     0     0    29  1.216     0     0     0     0     0
 2020 183    78    32     1   115     0     0    29  1.216     0     0     0     0     0
 2020 184    79    33     1   115     0     0    29  1.216     0     0     0     0     0
 2020 185    80    34     2   230     0     0    29  1.216     0     0     0     0     0
 2020 186    81    35     2   230     0     0    29  1.216     0     0     0     0     0
 2020 187    82    36     2   230     0     0    29  1.216     0     0     0     0     0
 2020 188    83    37     2   230     0     0    29  1.216     0     0     0     0     0
 2020 189    84    38     2   230     0     0    29  1.216     0     0     0     0     0
 2020 190    85    39     2   230     0     0    29  1.216     0     0     0     0     0
 2020 191    86    40     2   230     0     0    29  1.216     0     0     0     0     0
 2020 192    87    41     2   230     0     0    29  1.216     0     0     0     0     0
 2020 193    88    42     2   230     0     0    29  1.216     0     0     0     0     0
 2020 194    89    43     2   230     0     0    29  1.216     0     0     0     0     0
 2020 195    90    44     2   230     0     0    29  1.216     0     0     0     0     0
 2020 196    91    45     2   230     0     0    29  1.216     0     0     0     0     0
 2020 197    92    46     2   230     0     0    29  1.216     0     0     0     0     0
 2020 198    93    47     2   230     0     0    29  1.216     0     0     0     0     0
 2020 199    94    48     3   346     0     0    29  1.216     0     0     0     0     0
 2020 200    95    49     3   346     0     0    29  1.216     0     0     0     0     0
 2020 201    96    50     3   346     0     0    29  1.216     0     0     0     0     0
 2020 202    97    51     3   346     0     0    29  1.216     0     0     0     0     0
 2020 203    98    52     3   346     0     0    29  1.216     0     0     0     0     0
 2020 204    99    53     3   346     0     0    29  1.216     0     0     0     0     0
 2020 205   100    54     3   346     0     0    29  1.216     0     0     0     0     0
 2020 206   101    55     3   346     0     0    29  1.216     0     0     0     0     0
 2020 207   102    56     3   346     0     0    29  1.216     0     0     0     0     0
 2020 208   103    57     3   346     0     0    29  1.216     0     0     0     0     0
 2020 209   104    58     3   346     0     0    29  1.216     0     0     0     0     0
 2020 210   105    59     3   346     0     0    29  1.216     0     0     0     0     0
 2020 211   106    60     3   346     0     0    29  1.216     0     0     0     0     0
 2020 212   107    61     3   346     0     0    29  1.216     0     0     0     0     0
 2020 213   108    62     3   346     0     0    29  1.216     0     0     0     0     0
 2020 214   109    63     3   346     0     0    29  1.216     0     0     0     0     0
 2020 215   110    64     3   346     0     0    29  1.216     0     0     0     0     0
 2020 216   111    65     3   346     0     0    29  1.216     0     0     0     0     0
 2020 217   112    66     3   346     0     0    29  1.216     0     0     0     0     0
 2020 218   113    67     3   346     0     0    29  1.216     0     0     0     0     0
 2020 219   114    68     3   346     0     0    29  1.216     0     0     0     0     0
 2020 220   115    69     3   346     0     0    29  1.216     0     0     0     0     0
 2020 221   116    70     3   346     0     0    29  1.216     0     0     0     0     0
 2020 222   117    71     3   346     0     0    29  1.216     0     0     0     0     0
 2020 223   118    72     3   346     0     0    29  1.216     0     0     0     0     0
 2020 224   119    73     3   346     0     0    29  1.216     0     0     0     0     0
 2020 225   120    74     3   346     0     0    29  1.216     0     0     0     0     0
 2020 226   121    75     3   346     0     0    29  1.216     0     0     0     0     0
 2020 227   122    76     3   346     0     0    29  1.216     0     0     0     0     0
 2020 228   123    77     3   346     0     0    29  1.216     0     0     0     0     0
 2020 229   124    78     3   346     0     0    29  1.216     0     0     0     0     0
 2020 230   125    79     3   346     0     0    29  1.216     0     0     0     0     0
 2020 231   126    80     3   346     0     0    29  1.216     0     0     0     0     0
 2020 232   127    81     3   346     0     0    29  1.216     0     0     0     0     0
 2020 233   128    82     3   346     0     0    29  1.216     0     0     0     0     0
 2020 234   129    83     4   463     0     0    29  1.216     0     0     0     0     0
 2020 235   130    84     4   463     0     0    29  1.216     0     0     0     0     0
 2020 236   131    85     4   463     0     0    29  1.216     0     0     0     0     0
 2020 237   132    86     4   463     0     0    29  1.216     0     0     0     0     0
 2020 238   133    87     4   463     0     0    29  1.216     0     0     0     0     0
 2020 239   134    88     4   463     0     0    29  1.216     0     0     0     0     0
 2020 240   135    89     4   463     0     0    29  1.216     0     0     0     0     0
 2020 241   136    90     4   463     0     0    29  1.216     0     0     0     0     0
 2020 242   137    91     4   463     0     0    29  1.216     0     0     0     0     0
 2020 243   138    92     4   463     0     0    29  1.216     0     0     0     0     0
 2020 244   139    93     4   463     0     0    29  1.216     0     0     0     0     0
 2020 245   140    94     4   463     0     0    29  1.216     0     0     0     0     0
 2020 246   141    95     4   463     0     0    29  1.216     0     0     0     0     0
 2020 247   142    96     4   463     0     0    29  1.216     0     0     0     0     0
 2020 248   143    97     4   463     0     0    29  1.216     0     0     0     0     0
 2020 249   144    98     4   463     0     0    29  1.216     0     0     0     0     0
 2020 250   145    99     4   463     0     0    29  1.216     0     0     0     0     0
 2020 251   146   100     4   463     0     0    29  1.216     0     0     0     0     0
 2020 252   147   101     4   463     0     0    29  1.216     0     0     0     0     0
 2020 253   148   102     4   463     0     0    29  1.216     0     0     0     0     0
 2020 254   149   103     4   463     0     0    29  1.216     0     0     0     0     0
 2020 255   150   104     4   463     0     0    29  1.216     0     0     0     0     0
 2020 256   151   105     4   463     0     0    29  1.216     0     0     0     0     0
 2020 257   152   106     4   463     0     0    29  1.216     0     0     0     0     0
 2020 258   153   107     4   463     0     0    29  1.216     0     0     0     0     0
 2020 259   154   108     4   463     0     0    29  1.216     0     0     0     0     0
 2020 260   155   109     4   463     0     0    29  1.216     0     0     0     0     0
 2020 261   156   110     4   463     0     0    29  1.216     0     0     0     0     0
 2020 262   157   111     4   463     0     0    29  1.216     0     0     0     0     0
 2020 263   158   112     4   463     0     0    29  1.216     0     0     0     0     0
 2020 264   159   113     4   463     0     0    29  1.216     0     0     0     0     0
 2020 265   160   114     4   463     0     0    29  1.216     0     0     0     0     0
 2020 266   161   115     4   463     0     0    29  1.216     0     0     0     0     0
 2020 267   162   116     4   463     0     0    29  1.216     0     0     0     0     0
 2020 268   163   117     4   463     0     0    29  1.216     0     0     0     0     0
 2020 269   164   118     4   463     0     0    29  1.216     0     0     0     0     0
 2020 270   165   119     4   463     0     0    29  1.216     0     0     0     0     0
 2020 271   166   120     4   463     0     0    29  1.216     0     0     0     0     0
 2020 272   167   121     4   463     0     0    29  1.216     0     0     0     0     0
 2020 273   168   122     4   463     0     0    29  1.216     0     0     0     0     0
 2020 274   169   123     4   463     0     0    29  1.216     0     0     0     0     0
 2020 275   170   124     4   463     0     0    29  1.216     0     0     0     0     0
 2020 276   171   125     4   463     0     0    29  1.216     0     0     0     0     0
 2020 277   172   126     4   463     0     0    29  1.216     0     0     0     0     0

*DSSAT Cropping System Model Ver. 4.7.5.035 -develop  JUN 11, 2021 16:21:59

*RUN   2        : 20 IRRIG, PETPEN KCB..... MZCER047 KSRT2001    2
 MODEL          : MZCER047 - Maize
 EXPERIMENT     : KSRT2001 SB ARM 2020 KS, IRRIGATED & NON-IRRIGATED
 DATA PATH      :
 TREATMENT  2   : 20 IRRIG, PETPEN KCB..... MZCER047
  

@YEAR DOY   DAS   DAP  IR#C  IRRC  TL#C  TLDD DLYR3   TLBD  NAPC  NICM  R#AC RESNC RESPC
 2020 106     1     0     0     0     0     0    29  1.216     0     0     0     0     0
 2020 107     2     0     0     0     0     0    29  1.216     0     0     0     0     0
 2020 108     3     0     0     0     0     0    29  1.216     0     0     0     0     0
 2020 109     4     0     0     0     0     0    29  1.216     0     0     0     0     0
 2020 110     5     0     0     0     0     0    29  1.216     0     0     0     0     0
 2020 111     6     0     0     0     0     0    29  1.216     0     0     0     0     0
 2020 112     7     0     0     0     0     0    29  1.216     0     0     0     0     0
 2020 113     8     0     0     0     0     0    29  1.216     0     0     0     0     0
 2020 114     9     0     0     0     0     0    29  1.216     0     0     0     0     0
 2020 115    10     0     0     0     0     0    29  1.216     0     0     0     0     0
 2020 116    11     0     0     0     0     0    29  1.216     0     0     0     0     0
 2020 117    12     0     0     0     0     0    29  1.216     0     0     0     0     0
 2020 118    13     0     0     0     0     0    29  1.216     0     0     0     0     0
 2020 119    14     0     0     0     0     0    29  1.216     0     0     0     0     0
 2020 120    15     0     0     0     0     0    29  1.216     0     0     0     0     0
 2020 121    16     0     0     0     0     0    29  1.216     0     0     0     0     0
 2020 122    17     0     0     0     0     0    29  1.216     0     0     0     0     0
 2020 123    18     0     0     0     0     0    29  1.216     0     0     0     0     0
 2020 124    19     0     0     0     0     0    29  1.216     0     0     0     0     0
 2020 125    20     0     0     0     0     0    29  1.216     0     0     0     0     0
 2020 126    21     0     0     0     0     0    29  1.216     0     0     0     0     0
 2020 127    22     0     0     0     0     0    29  1.216     0     0     0     0     0
 2020 128    23     0     0     0     0     0    29  1.216     0     0     0     0     0
 2020 129    24     0     0     0     0     0    29  1.216     0     0     0     0     0
 2020 130    25     0     0     0     0     0    29  1.216     0     0     0     0     0
 2020 131    26     0     0     0     0     0    29  1.216     0     0     0     0     0
 2020 132    27     0     0     0     0     0    29  1.216     0     0     0     0     0
 2020 133    28     0     0     0     0     0    29  1.216     0     0     0     0     0
 2020 134    29     0     0     0     0     0    29  1.216     0     0     0     0     0
 2020 135    30     0     0     0     0     0    29  1.216     0     0     0     0     0
 2020 136    31     0     0     0     0     0    29  1.216     0     0     0     0     0
 2020 137    32     0     0     0     0     0    29  1.216     0     0     0     0     0
 2020 138    33     0     0     0     0     0    29  1.216     0     0     0     0     0
 2020 139    34     0     0     0     0     0    29  1.216     0     0     0     0     0
 2020 140    35     0     0     0     0     0    29  1.216     0     0     0     0     0
 2020 141    36     0     0     0     0     0    29  1.216     0     0     0     0     0
 2020 142    37     0     0     0     0     0    29  1.216     0     0     0     0     0
 2020 143    38     0     0     0     0     0    29  1.216     0     0     0     0     0
 2020 144    39     0     0     0     0     0    29  1.216     0     0     0     0     0
 2020 145    40     0     0     0     0     0    29  1.216     0     0     0     0     0
 2020 146    41     0     0     0     0     0    29  1.216     0     0     0     0     0
 2020 147    42     0     0     0     0     0    29  1.216     0     0     0     0     0
 2020 148    43     0     0     0     0     0    29  1.216     0     0     0     0     0
 2020 149    44     0     0     0     0     0    29  1.216     0     0     0     0     0
 2020 150    45     0     0     0     0     0    29  1.216     0     0     0     0     0
 2020 151    46     0     0     0     0     0    29  1.216     0     0     0     0     0
 2020 152    47     1     0     0     0     0    29  1.216     0     0     0     0     0
 2020 153    48     2     0     0     0     0    29  1.216     0     0     0     0     0
 2020 154    49     3     0     0     0     0    29  1.216     0     0     0     0     0
 2020 155    50     4     0     0     0     0    29  1.216     0     0     0     0     0
 2020 156    51     5     0     0     0     0    29  1.216     0     0     0     0     0
 2020 157    52     6     0     0     0     0    29  1.216     0     0     0     0     0
 2020 158    53     7     0     0     0     0    29  1.216     0     0     0     0     0
 2020 159    54     8     0     0     0     0    29  1.216     0     0     0     0     0
 2020 160    55     9     0     0     0     0    29  1.216     0     0     0     0     0
 2020 161    56    10     0     0     0     0    29  1.216     0     0     0     0     0
 2020 162    57    11     0     0     0     0    29  1.216     0     0     0     0     0
 2020 163    58    12     0     0     0     0    29  1.216     0     0     0     0     0
 2020 164    59    13     0     0     0     0    29  1.216     0     0     0     0     0
 2020 165    60    14     0     0     0     0    29  1.216     0     0     0     0     0
 2020 166    61    15     0     0     0     0    29  1.216     0     0     0     0     0
 2020 167    62    16     0     0     0     0    29  1.216     0     0     0     0     0
 2020 168    63    17     0     0     0     0    29  1.216     0     0     0     0     0
 2020 169    64    18     0     0     0     0    29  1.216     0     0     0     0     0
 2020 170    65    19     0     0     0     0    29  1.216     0     0     0     0     0
 2020 171    66    20     0     0     0     0    29  1.216     0     0     0     0     0
 2020 172    67    21     0     0     0     0    29  1.216     0     0     0     0     0
 2020 173    68    22     0     0     0     0    29  1.216     0     0     0     0     0
 2020 174    69    23     0     0     0     0    29  1.216     0     0     0     0     0
 2020 175    70    24     0     0     0     0    29  1.216     0     0     0     0     0
 2020 176    71    25     0     0     0     0    29  1.216     0     0     0     0     0
 2020 177    72    26     0     0     0     0    29  1.216     0     0     0     0     0
 2020 178    73    27     0     0     0     0    29  1.216     0     0     0     0     0
 2020 179    74    28     0     0     0     0    29  1.216     0     0     0     0     0
 2020 180    75    29     0     0     0     0    29  1.216     0     0     0     0     0
 2020 181    76    30     0     0     0     0    29  1.216     0     0     0     0     0
 2020 182    77    31     0     0     0     0    29  1.216     0     0     0     0     0
 2020 183    78    32     0     0     0     0    29  1.216     0     0     0     0     0
 2020 184    79    33     0     0     0     0    29  1.216     0     0     0     0     0
 2020 185    80    34     0     0     0     0    29  1.216     0     0     0     0     0
 2020 186    81    35     0     0     0     0    29  1.216     0     0     0     0     0
 2020 187    82    36     0     0     0     0    29  1.216     0     0     0     0     0
 2020 188    83    37     0     0     0     0    29  1.216     0     0     0     0     0
 2020 189    84    38     0     0     0     0    29  1.216     0     0     0     0     0
 2020 190    85    39     1   115     0     0    29  1.216     0     0     0     0     0
 2020 191    86    40     1   115     0     0    29  1.216     0     0     0     0     0
 2020 192    87    41     1   115     0     0    29  1.216     0     0     0     0     0
 2020 193    88    42     1   115     0     0    29  1.216     0     0     0     0     0
 2020 194    89    43     1   115     0     0    29  1.216     0     0     0     0     0
 2020 195    90    44     1   115     0     0    29  1.216     0     0     0     0     0
 2020 196    91    45     1   115     0     0    29  1.216     0     0     0     0     0
 2020 197    92    46     1   115     0     0    29  1.216     0     0     0     0     0
 2020 198    93    47     1   115     0     0    29  1.216     0     0     0     0     0
 2020 199    94    48     1   115     0     0    29  1.216     0     0     0     0     0
 2020 200    95    49     1   115     0     0    29  1.216     0     0     0     0     0
 2020 201    96    50     1   115     0     0    29  1.216     0     0     0     0     0
 2020 202    97    51     1   115     0     0    29  1.216     0     0     0     0     0
 2020 203    98    52     1   115     0     0    29  1.216     0     0     0     0     0
 2020 204    99    53     1   115     0     0    29  1.216     0     0     0     0     0
 2020 205   100    54     1   115     0     0    29  1.216     0     0     0     0     0
 2020 206   101    55     1   115     0     0    29  1.216     0     0     0     0     0
 2020 207   102    56     1   115     0     0    29  1.216     0     0     0     0     0
 2020 208   103    57     2   230     0     0    29  1.216     0     0     0     0     0
 2020 209   104    58     2   230     0     0    29  1.216     0     0     0     0     0
 2020 210   105    59     2   230     0     0    29  1.216     0     0     0     0     0
 2020 211   106    60     2   230     0     0    29  1.216     0     0     0     0     0
 2020 212   107    61     2   230     0     0    29  1.216     0     0     0     0     0
 2020 213   108    62     2   230     0     0    29  1.216     0     0     0     0     0
 2020 214   109    63     2   230     0     0    29  1.216     0     0     0     0     0
 2020 215   110    64     2   230     0     0    29  1.216     0     0     0     0     0
 2020 216   111    65     2   230     0     0    29  1.216     0     0     0     0     0
 2020 217   112    66     2   230     0     0    29  1.216     0     0     0     0     0
 2020 218   113    67     2   230     0     0    29  1.216     0     0     0     0     0
 2020 219   114    68     2   230     0     0    29  1.216     0     0     0     0     0
 2020 220   115    69     2   230     0     0    29  1.216     0     0     0     0     0
 2020 221   116    70     2   230     0     0    29  1.216     0     0     0     0     0
 2020 222   117    71     2   230     0     0    29  1.216     0     0     0     0     0
 2020 223   118    72     2   230     0     0    29  1.216     0     0     0     0     0
 2020 224   119    73     2   230     0     0    29  1.216     0     0     0     0     0
 2020 225   120    74     2   230     0     0    29  1.216     0     0     0     0     0
 2020 226   121    75     2   230     0     0    29  1.216     0     0     0     0     0
 2020 227   122    76     2   230     0     0    29  1.216     0     0     0     0     0
 2020 228   123    77     2   230     0     0    29  1.216     0     0     0     0     0
 2020 229   124    78     2   230     0     0    29  1.216     0     0     0     0     0
 2020 230   125    79     2   230     0     0    29  1.216     0     0     0     0     0
 2020 231   126    80     2   230     0     0    29  1.216     0     0     0     0     0
 2020 232   127    81     2   230     0     0    29  1.216     0     0     0     0     0
 2020 233   128    82     2   230     0     0    29  1.216     0     0     0     0     0
 2020 234   129    83     2   230     0     0    29  1.216     0     0     0     0     0
 2020 235   130    84     3   345     0     0    29  1.216     0     0     0     0     0
 2020 236   131    85     3   345     0     0    29  1.216     0     0     0     0     0
 2020 237   132    86     3   345     0     0    29  1.216     0     0     0     0     0
 2020 238   133    87     3   345     0     0    29  1.216     0     0     0     0     0
 2020 239   134    88     3   345     0     0    29  1.216     0     0     0     0     0
 2020 240   135    89     3   345     0     0    29  1.216     0     0     0     0     0
 2020 241   136    90     3   345     0     0    29  1.216     0     0     0     0     0
 2020 242   137    91     3   345     0     0    29  1.216     0     0     0     0     0
 2020 243   138    92     3   345     0     0    29  1.216     0     0     0     0     0
 2020 244   139    93     3   345     0     0    29  1.216     0     0     0     0     0
 2020 245   140    94     3   345     0     0    29  1.216     0     0     0     0     0
 2020 246   141    95     3   345     0     0    29  1.216     0     0     0     0     0
 2020 247   142    96     3   345     0     0    29  1.216     0     0     0     0     0
 2020 248   143    97     3   345     0     0    29  1.216     0     0     0     0     0
 2020 249   144    98     3   345     0     0    29  1.216     0     0     0     0     0
 2020 250   145    99     3   345     0     0    29  1.216     0     0     0     0     0
 2020 251   146   100     3   345     0     0    29  1.216     0     0     0     0     0
 2020 252   147   101     3   345     0     0    29  1.216     0     0     0     0     0
 2020 253   148   102     3   345     0     0    29  1.216     0     0     0     0     0
 2020 254   149   103     3   345     0     0    29  1.216     0     0     0     0     0
 2020 255   150   104     3   345     0     0    29  1.216     0     0     0     0     0
 2020 256   151   105     3   345     0     0    29  1.216     0     0     0     0     0
 2020 257   152   106     3   345     0     0    29  1.216     0     0     0     0     0
 2020 258   153   107     3   345     0     0    29  1.216     0     0     0     0     0
 2020 259   154   108     3   345     0     0    29  1.216     0     0     0     0     0
 2020 260   155   109     3   345     0     0    29  1.216     0     0     0     0     0
 2020 261   156   110     3   345     0     0    29  1.216     0     0     0     0     0
 2020 262   157   111     3   345     0     0    29  1.216     0     0     0     0     0
 2020 263   158   112     3   345     0     0    29  1.216     0     0     0     0     0
 2020 264   159   113     3   345     0     0    29  1.216     0     0     0     0     0
 2020 265   160   114     3   345     0     0    29  1.216     0     0     0     0     0
 2020 266   161   115     3   345     0     0    29  1.216     0     0     0     0     0
 2020 267   162   116     3   345     0     0    29  1.216     0     0     0     0     0
 2020 268   163   117     3   345     0     0    29  1.216     0     0     0     0     0
 2020 269   164   118     3   345     0     0    29  1.216     0     0     0     0     0
 2020 270   165   119     3   345     0     0    29  1.216     0     0     0     0     0
 2020 271   166   120     3   345     0     0    29  1.216     0     0     0     0     0
 2020 272   167   121     3   345     0     0    29  1.216     0     0     0     0     0
 2020 273   168   122     3   345     0     0    29  1.216     0     0     0     0     0
 2020 274   169   123     3   345     0     0    29  1.216     0     0     0     0     0
 2020 275   170   124     3   345     0     0    29  1.216     0     0     0     0     0
 2020 276   171   125     3   345     0     0    29  1.216     0     0     0     0     0
 2020 277   172   126     3   345     0     0    29  1.216     0     0     0     0     0

*DSSAT Cropping System Model Ver. 4.7.5.035 -develop  JUN 11, 2021 16:21:59

*RUN   3        : 20 IRRIG, ASCE SHORT..... MZCER047 KSRT2001    3
 MODEL          : MZCER047 - Maize
 EXPERIMENT     : KSRT2001 SB ARM 2020 KS, IRRIGATED & NON-IRRIGATED
 DATA PATH      :
 TREATMENT  3   : 20 IRRIG, ASCE SHORT..... MZCER047
  

@YEAR DOY   DAS   DAP  IR#C  IRRC  TL#C  TLDD DLYR3   TLBD  NAPC  NICM  R#AC RESNC RESPC
 2020 106     1     0     0     0     0     0    29  1.216     0     0     0     0     0
 2020 107     2     0     0     0     0     0    29  1.216     0     0     0     0     0
 2020 108     3     0     0     0     0     0    29  1.216     0     0     0     0     0
 2020 109     4     0     0     0     0     0    29  1.216     0     0     0     0     0
 2020 110     5     0     0     0     0     0    29  1.216     0     0     0     0     0
 2020 111     6     0     0     0     0     0    29  1.216     0     0     0     0     0
 2020 112     7     0     0     0     0     0    29  1.216     0     0     0     0     0
 2020 113     8     0     0     0     0     0    29  1.216     0     0     0     0     0
 2020 114     9     0     0     0     0     0    29  1.216     0     0     0     0     0
 2020 115    10     0     0     0     0     0    29  1.216     0     0     0     0     0
 2020 116    11     0     0     0     0     0    29  1.216     0     0     0     0     0
 2020 117    12     0     0     0     0     0    29  1.216     0     0     0     0     0
 2020 118    13     0     0     0     0     0    29  1.216     0     0     0     0     0
 2020 119    14     0     0     0     0     0    29  1.216     0     0     0     0     0
 2020 120    15     0     0     0     0     0    29  1.216     0     0     0     0     0
 2020 121    16     0     0     0     0     0    29  1.216     0     0     0     0     0
 2020 122    17     0     0     0     0     0    29  1.216     0     0     0     0     0
 2020 123    18     0     0     0     0     0    29  1.216     0     0     0     0     0
 2020 124    19     0     0     0     0     0    29  1.216     0     0     0     0     0
 2020 125    20     0     0     0     0     0    29  1.216     0     0     0     0     0
 2020 126    21     0     0     0     0     0    29  1.216     0     0     0     0     0
 2020 127    22     0     0     0     0     0    29  1.216     0     0     0     0     0
 2020 128    23     0     0     0     0     0    29  1.216     0     0     0     0     0
 2020 129    24     0     0     0     0     0    29  1.216     0     0     0     0     0
 2020 130    25     0     0     0     0     0    29  1.216     0     0     0     0     0
 2020 131    26     0     0     0     0     0    29  1.216     0     0     0     0     0
 2020 132    27     0     0     0     0     0    29  1.216     0     0     0     0     0
 2020 133    28     0     0     0     0     0    29  1.216     0     0     0     0     0
 2020 134    29     0     0     0     0     0    29  1.216     0     0     0     0     0
 2020 135    30     0     0     0     0     0    29  1.216     0     0     0     0     0
 2020 136    31     0     0     0     0     0    29  1.216     0     0     0     0     0
 2020 137    32     0     0     0     0     0    29  1.216     0     0     0     0     0
 2020 138    33     0     0     0     0     0    29  1.216     0     0     0     0     0
 2020 139    34     0     0     0     0     0    29  1.216     0     0     0     0     0
 2020 140    35     0     0     0     0     0    29  1.216     0     0     0     0     0
 2020 141    36     0     0     0     0     0    29  1.216     0     0     0     0     0
 2020 142    37     0     0     0     0     0    29  1.216     0     0     0     0     0
 2020 143    38     0     0     0     0     0    29  1.216     0     0     0     0     0
 2020 144    39     0     0     0     0     0    29  1.216     0     0     0     0     0
 2020 145    40     0     0     0     0     0    29  1.216     0     0     0     0     0
 2020 146    41     0     0     0     0     0    29  1.216     0     0     0     0     0
 2020 147    42     0     0     0     0     0    29  1.216     0     0     0     0     0
 2020 148    43     0     0     0     0     0    29  1.216     0     0     0     0     0
 2020 149    44     0     0     0     0     0    29  1.216     0     0     0     0     0
 2020 150    45     0     0     0     0     0    29  1.216     0     0     0     0     0
 2020 151    46     0     0     0     0     0    29  1.216     0     0     0     0     0
 2020 152    47     1     0     0     0     0    29  1.216     0     0     0     0     0
 2020 153    48     2     0     0     0     0    29  1.216     0     0     0     0     0
 2020 154    49     3     0     0     0     0    29  1.216     0     0     0     0     0
 2020 155    50     4     0     0     0     0    29  1.216     0     0     0     0     0
 2020 156    51     5     0     0     0     0    29  1.216     0     0     0     0     0
 2020 157    52     6     0     0     0     0    29  1.216     0     0     0     0     0
 2020 158    53     7     0     0     0     0    29  1.216     0     0     0     0     0
 2020 159    54     8     0     0     0     0    29  1.216     0     0     0     0     0
 2020 160    55     9     0     0     0     0    29  1.216     0     0     0     0     0
 2020 161    56    10     0     0     0     0    29  1.216     0     0     0     0     0
 2020 162    57    11     0     0     0     0    29  1.216     0     0     0     0     0
 2020 163    58    12     0     0     0     0    29  1.216     0     0     0     0     0
 2020 164    59    13     0     0     0     0    29  1.216     0     0     0     0     0
 2020 165    60    14     0     0     0     0    29  1.216     0     0     0     0     0
 2020 166    61    15     0     0     0     0    29  1.216     0     0     0     0     0
 2020 167    62    16     0     0     0     0    29  1.216     0     0     0     0     0
 2020 168    63    17     0     0     0     0    29  1.216     0     0     0     0     0
 2020 169    64    18     1   116     0     0    29  1.216     0     0     0     0     0
 2020 170    65    19     1   116     0     0    29  1.216     0     0     0     0     0
 2020 171    66    20     1   116     0     0    29  1.216     0     0     0     0     0
 2020 172    67    21     1   116     0     0    29  1.216     0     0     0     0     0
 2020 173    68    22     1   116     0     0    29  1.216     0     0     0     0     0
 2020 174    69    23     1   116     0     0    29  1.216     0     0     0     0     0
 2020 175    70    24     1   116     0     0    29  1.216     0     0     0     0     0
 2020 176    71    25     1   116     0     0    29  1.216     0     0     0     0     0
 2020 177    72    26     1   116     0     0    29  1.216     0     0     0     0     0
 2020 178    73    27     1   116     0     0    29  1.216     0     0     0     0     0
 2020 179    74    28     1   116     0     0    29  1.216     0     0     0     0     0
 2020 180    75    29     1   116     0     0    29  1.216     0     0     0     0     0
 2020 181    76    30     1   116     0     0    29  1.216     0     0     0     0     0
 2020 182    77    31     1   116     0     0    29  1.216     0     0     0     0     0
 2020 183    78    32     1   116     0     0    29  1.216     0     0     0     0     0
 2020 184    79    33     2   233     0     0    29  1.216     0     0     0     0     0
 2020 185    80    34     2   233     0     0    29  1.216     0     0     0     0     0
 2020 186    81    35     2   233     0     0    29  1.216     0     0     0     0     0
 2020 187    82    36     2   233     0     0    29  1.216     0     0     0     0     0
 2020 188    83    37     2   233     0     0    29  1.216     0     0     0     0     0
 2020 189    84    38     2   233     0     0    29  1.216     0     0     0     0     0
 2020 190    85    39     2   233     0     0    29  1.216     0     0     0     0     0
 2020 191    86    40     2   233     0     0    29  1.216     0     0     0     0     0
 2020 192    87    41     2   233     0     0    29  1.216     0     0     0     0     0
 2020 193    88    42     2   233     0     0    29  1.216     0     0     0     0     0
 2020 194    89    43     2   233     0     0    29  1.216     0     0     0     0     0
 2020 195    90    44     2   233     0     0    29  1.216     0     0     0     0     0
 2020 196    91    45     3   355     0     0    29  1.216     0     0     0     0     0
 2020 197    92    46     3   355     0     0    29  1.216     0     0     0     0     0
 2020 198    93    47     3   355     0     0    29  1.216     0     0     0     0     0
 2020 199    94    48     3   355     0     0    29  1.216     0     0     0     0     0
 2020 200    95    49     3   355     0     0    29  1.216     0     0     0     0     0
 2020 201    96    50     3   355     0     0    29  1.216     0     0     0     0     0
 2020 202    97    51     3   355     0     0    29  1.216     0     0     0     0     0
 2020 203    98    52     3   355     0     0    29  1.216     0     0     0     0     0
 2020 204    99    53     3   355     0     0    29  1.216     0     0     0     0     0
 2020 205   100    54     3   355     0     0    29  1.216     0     0     0     0     0
 2020 206   101    55     3   355     0     0    29  1.216     0     0     0     0     0
 2020 207   102    56     3   355     0     0    29  1.216     0     0     0     0     0
 2020 208   103    57     3   355     0     0    29  1.216     0     0     0     0     0
 2020 209   104    58     3   355     0     0    29  1.216     0     0     0     0     0
 2020 210   105    59     3   355     0     0    29  1.216     0     0     0     0     0
 2020 211   106    60     3   355     0     0    29  1.216     0     0     0     0     0
 2020 212   107    61     3   355     0     0    29  1.216     0     0     0     0     0
 2020 213   108    62     3   355     0     0    29  1.216     0     0     0     0     0
 2020 214   109    63     3   355     0     0    29  1.216     0     0     0     0     0
 2020 215   110    64     3   355     0     0    29  1.216     0     0     0     0     0
 2020 216   111    65     3   355     0     0    29  1.216     0     0     0     0     0
 2020 217   112    66     3   355     0     0    29  1.216     0     0     0     0     0
 2020 218   113    67     3   355     0     0    29  1.216     0     0     0     0     0
 2020 219   114    68     3   355     0     0    29  1.216     0     0     0     0     0
 2020 220   115    69     3   355     0     0    29  1.216     0     0     0     0     0
 2020 221   116    70     3   355     0     0    29  1.216     0     0     0     0     0
 2020 222   117    71     3   355     0     0    29  1.216     0     0     0     0     0
 2020 223   118    72     3   355     0     0    29  1.216     0     0     0     0     0
 2020 224   119    73     3   355     0     0    29  1.216     0     0     0     0     0
 2020 225   120    74     4   475     0     0    29  1.216     0     0     0     0     0
 2020 226   121    75     4   475     0     0    29  1.216     0     0     0     0     0
 2020 227   122    76     4   475     0     0    29  1.216     0     0     0     0     0
 2020 228   123    77     4   475     0     0    29  1.216     0     0     0     0     0
 2020 229   124    78     4   475     0     0    29  1.216     0     0     0     0     0
 2020 230   125    79     4   475     0     0    29  1.216     0     0     0     0     0
 2020 231   126    80     4   475     0     0    29  1.216     0     0     0     0     0
 2020 232   127    81     4   475     0     0    29  1.216     0     0     0     0     0
 2020 233   128    82     4   475     0     0    29  1.216     0     0     0     0     0
 2020 234   129    83     4   475     0     0    29  1.216     0     0     0     0     0
 2020 235   130    84     4   475     0     0    29  1.216     0     0     0     0     0
 2020 236   131    85     4   475     0     0    29  1.216     0     0     0     0     0
 2020 237   132    86     4   475     0     0    29  1.216     0     0     0     0     0
 2020 238   133    87     4   475     0     0    29  1.216     0     0     0     0     0
 2020 239   134    88     4   475     0     0    29  1.216     0     0     0     0     0
 2020 240   135    89     4   475     0     0    29  1.216     0     0     0     0     0
 2020 241   136    90     5   590     0     0    29  1.216     0     0     0     0     0
 2020 242   137    91     5   590     0     0    29  1.216     0     0     0     0     0
 2020 243   138    92     5   590     0     0    29  1.216     0     0     0     0     0
 2020 244   139    93     5   590     0     0    29  1.216     0     0     0     0     0
 2020 245   140    94     5   590     0     0    29  1.216     0     0     0     0     0
 2020 246   141    95     5   590     0     0    29  1.216     0     0     0     0     0
 2020 247   142    96     5   590     0     0    29  1.216     0     0     0     0     0
 2020 248   143    97     5   590     0     0    29  1.216     0     0     0     0     0
 2020 249   144    98     5   590     0     0    29  1.216     0     0     0     0     0
 2020 250   145    99     5   590     0     0    29  1.216     0     0     0     0     0
 2020 251   146   100     5   590     0     0    29  1.216     0     0     0     0     0
 2020 252   147   101     5   590     0     0    29  1.216     0     0     0     0     0
 2020 253   148   102     5   590     0     0    29  1.216     0     0     0     0     0
 2020 254   149   103     5   590     0     0    29  1.216     0     0     0     0     0
 2020 255   150   104     5   590     0     0    29  1.216     0     0     0     0     0
 2020 256   151   105     5   590     0     0    29  1.216     0     0     0     0     0
 2020 257   152   106     5   590     0     0    29  1.216     0     0     0     0     0
 2020 258   153   107     5   590     0     0    29  1.216     0     0     0     0     0
 2020 259   154   108     5   590     0     0    29  1.216     0     0     0     0     0
 2020 260   155   109     5   590     0     0    29  1.216     0     0     0     0     0
 2020 261   156   110     5   590     0     0    29  1.216     0     0     0     0     0
 2020 262   157   111     5   590     0     0    29  1.216     0     0     0     0     0
 2020 263   158   112     5   590     0     0    29  1.216     0     0     0     0     0
 2020 264   159   113     5   590     0     0    29  1.216     0     0     0     0     0
 2020 265   160   114     5   590     0     0    29  1.216     0     0     0     0     0
 2020 266   161   115     5   590     0     0    29  1.216     0     0     0     0     0
 2020 267   162   116     5   590     0     0    29  1.216     0     0     0     0     0
 2020 268   163   117     5   590     0     0    29  1.216     0     0     0     0     0
 2020 269   164   118     5   590     0     0    29  1.216     0     0     0     0     0
 2020 270   165   119     5   590     0     0    29  1.216     0     0     0     0     0
 2020 271   166   120     5   590     0     0    29  1.216     0     0     0     0     0
 2020 272   167   121     5   590     0     0    29  1.216     0     0     0     0     0
 2020 273   168   122     5   590     0     0    29  1.216     0     0     0     0     0
 2020 274   169   123     5   590     0     0    29  1.216     0     0     0     0     0
 2020 275   170   124     5   590     0     0    29  1.216     0     0     0     0     0
 2020 276   171   125     5   590     0     0    29  1.216     0     0     0     0     0
 2020 277   172   126     5   590     0     0    29  1.216     0     0     0     0     0
