*MANAGEMENT OPERATIONS EVENT SUMMARY

*DSSAT Cropping System Model Ver. 4.7.5.035 -develop  JUN 10, 2021 14:49:00
!---------------------------------------------------------------------------------------------
@RUN Date........  DOY    DAS    DAP  CR  Stage         Operation       Quantities
!---------------------------------------------------------------------------------------------
   1 MAY  9, 2020  130      1      0  MZ  14 Start Sim 
   1 MAY 30, 2020  151     22      0  MZ                Planting       
   1 MAY 30, 2020  151     22      0  MZ  07 Sowing    
   1 MAY 30, 2020  151     22      0  MZ                Irrigation        94.9 mm
   1 MAY 31, 2020  152     23      1  MZ  08 Germinate 
   1 JUN  4, 2020  156     27      5  MZ  09 Emergence 
   1 JUN 14, 2020  166     37     15  MZ                Organic matter    1000 kg[DM]/ha
   1 JUN 16, 2020  168     39     17  MZ  01 End Juveni
   1 JUN 23, 2020  175     46     24  MZ  02 Floral Ini
   1 JUL 28, 2020  210     81     59  MZ  03 75% Silkin
   1 AUG  8, 2020  221     92     70  MZ  04 Beg Gr Fil
   1 SEP 27, 2020  271    142    120  MZ  05 End Gr Fil
   1 OCT  3, 2020  277    148    126  MZ  16 Harvest   
   1 OCT  3, 2020  277    148    126  MZ                Harvest Yield    7239. kg/ha
 
