*MANAGEMENT OPERATIONS DAILY OUTPUT FILE

*DSSAT Cropping System Model Ver. 4.7.5.035 -develop  JUN 14, 2021 14:17:00

*RUN   1        : 20 IRRIG, PETPEN NO KCB.. MZCER047 KSRT2001    1
 MODEL          : MZCER047 - Maize
 EXPERIMENT     : KSRT2001 SB ARM 2020 KS, IRRIGATED
 DATA PATH      :
 TREATMENT  1   : 20 IRRIG, PETPEN NO KCB.. MZCER047
  

@YEAR DOY   DAS   DAP  IR#C  IRRC  TL#C  TLDD DLYR3   TLBD  NAPC  NICM  R#AC RESNC RESPC
 2020 106     1     0     0     0     0     0    29  1.216     0     0     0     0     0
 2020 107     2     0     0     0     0     0    29  1.216     0     0     0     0     0
 2020 108     3     0     0     0     0     0    29  1.216     0     0     0     0     0
 2020 109     4     0     0     0     0     0    29  1.216     0     0     0     0     0
 2020 110     5     0     0     0     0     0    29  1.216     0     0     0     0     0
 2020 111     6     0     0     0     0     0    29  1.216     0     0     0     0     0
 2020 112     7     0     0     0     0     0    29  1.216     0     0     0     0     0
 2020 113     8     0     0     0     0     0    29  1.216     0     0     0     0     0
 2020 114     9     0     0     0     0     0    29  1.216     0     0     0     0     0
 2020 115    10     0     0     0     0     0    29  1.216     0     0     0     0     0
 2020 116    11     0     0     0     0     0    29  1.216     0     0     0     0     0
 2020 117    12     0     0     0     0     0    29  1.216     0     0     0     0     0
 2020 118    13     0     0     0     0     0    29  1.216     0     0     0     0     0
 2020 119    14     0     0     0     0     0    29  1.216     0     0     0     0     0
 2020 120    15     0     0     0     0     0    29  1.216     0     0     0     0     0
 2020 121    16     0     0     0     0     0    29  1.216     0     0     0     0     0
 2020 122    17     0     0     0     0     0    29  1.216     0     0     0     0     0
 2020 123    18     0     0     0     0     0    29  1.216     0     0     0     0     0
 2020 124    19     0     0     0     0     0    29  1.216     0     0     0     0     0
 2020 125    20     0     0     0     0     0    29  1.216     0     0     0     0     0
 2020 126    21     0     0     0     0     0    29  1.216     0     0     0     0     0
 2020 127    22     0     0     0     0     0    29  1.216     0     0     0     0     0
 2020 128    23     0     0     0     0     0    29  1.216     0     0     0     0     0
 2020 129    24     0     0     0     0     0    29  1.216     0     0     0     0     0
 2020 130    25     0     0     0     0     0    29  1.216     0     0     0     0     0
 2020 131    26     0     0     0     0     0    29  1.216     0     0     0     0     0
 2020 132    27     0     0     0     0     0    29  1.216     0     0     0     0     0
 2020 133    28     0     0     0     0     0    29  1.216     0     0     0     0     0
 2020 134    29     0     0     0     0     0    29  1.216     0     0     0     0     0
 2020 135    30     0     0     0     0     0    29  1.216     0     0     0     0     0
 2020 136    31     0     0     0     0     0    29  1.216     0     0     0     0     0
 2020 137    32     0     0     0     0     0    29  1.216     0     0     0     0     0
 2020 138    33     0     0     0     0     0    29  1.216     0     0     0     0     0
 2020 139    34     0     0     0     0     0    29  1.216     0     0     0     0     0
 2020 140    35     0     0     0     0     0    29  1.216     0     0     0     0     0
 2020 141    36     0     0     0     0     0    29  1.216     0     0     0     0     0
 2020 142    37     0     0     0     0     0    29  1.216     0     0     0     0     0
 2020 143    38     0     0     0     0     0    29  1.216     0     0     0     0     0
 2020 144    39     0     0     0     0     0    29  1.216     0     0     0     0     0
 2020 145    40     0     0     0     0     0    29  1.216     1   255     0     0     0
 2020 146    41     0     0     0     0     0    29  1.216     1   255     0     0     0
 2020 147    42     0     0     0     0     0    29  1.216     1   255     0     0     0
 2020 148    43     0     1    25     0     0    29  1.216     1   255     0     0     0
 2020 149    44     0     1    25     0     0    29  1.216     1   255     0     0     0
 2020 150    45     0     1    25     0     0    29  1.216     1   255     0     0     0
 2020 151    46     0     1    25     0     0    29  1.216     1   255     0     0     0
 2020 152    47     1     1    25     0     0    29  1.216     1   255     0     0     0
 2020 153    48     2     1    25     0     0    29  1.216     1   255     0     0     0
 2020 154    49     3     1    25     0     0    29  1.216     1   255     0     0     0
 2020 155    50     4     1    25     0     0    29  1.216     1   255     0     0     0
 2020 156    51     5     1    25     0     0    29  1.216     1   255     0     0     0
 2020 157    52     6     1    25     0     0    29  1.216     1   255     0     0     0
 2020 158    53     7     2    51     0     0    29  1.216     1   255     0     0     0
 2020 159    54     8     2    51     0     0    29  1.216     1   255     0     0     0
 2020 160    55     9     2    51     0     0    29  1.216     1   255     0     0     0
 2020 161    56    10     2    51     0     0    29  1.216     1   255     0     0     0
 2020 162    57    11     2    51     0     0    29  1.216     1   255     0     0     0
 2020 163    58    12     2    51     0     0    29  1.216     1   255     0     0     0
 2020 164    59    13     2    51     0     0    29  1.216     1   255     0     0     0
 2020 165    60    14     2    51     0     0    29  1.216     1   255     0     0     0
 2020 166    61    15     2    51     0     0    29  1.216     1   255     0     0     0
 2020 167    62    16     3    76     0     0    29  1.216     1   255     0     0     0
 2020 168    63    17     3    76     0     0    29  1.216     1   255     0     0     0
 2020 169    64    18     3    76     0     0    29  1.216     1   255     0     0     0
 2020 170    65    19     3    76     0     0    29  1.216     1   255     0     0     0
 2020 171    66    20     3    76     0     0    29  1.216     1   255     0     0     0
 2020 172    67    21     3    76     0     0    29  1.216     1   255     0     0     0
 2020 173    68    22     3    76     0     0    29  1.216     1   255     0     0     0
 2020 174    69    23     4   102     0     0    29  1.216     1   255     0     0     0
 2020 175    70    24     4   102     0     0    29  1.216     1   255     0     0     0
 2020 176    71    25     4   102     0     0    29  1.216     1   255     0     0     0
 2020 177    72    26     4   102     0     0    29  1.216     1   255     0     0     0
 2020 178    73    27     4   102     0     0    29  1.216     1   255     0     0     0
 2020 179    74    28     4   102     0     0    29  1.216     1   255     0     0     0
 2020 180    75    29     4   102     0     0    29  1.216     1   255     0     0     0
 2020 181    76    30     5   127     0     0    29  1.216     1   255     0     0     0
 2020 182    77    31     5   127     0     0    29  1.216     1   255     0     0     0
 2020 183    78    32     5   127     0     0    29  1.216     1   255     0     0     0
 2020 184    79    33     5   127     0     0    29  1.216     1   255     0     0     0
 2020 185    80    34     5   127     0     0    29  1.216     1   255     0     0     0
 2020 186    81    35     5   127     0     0    29  1.216     1   255     0     0     0
 2020 187    82    36     5   127     0     0    29  1.216     1   255     0     0     0
 2020 188    83    37     5   127     0     0    29  1.216     1   255     0     0     0
 2020 189    84    38     5   127     0     0    29  1.216     1   255     0     0     0
 2020 190    85    39     5   127     0     0    29  1.216     1   255     0     0     0
 2020 191    86    40     5   127     0     0    29  1.216     1   255     0     0     0
 2020 192    87    41     5   127     0     0    29  1.216     1   255     0     0     0
 2020 193    88    42     5   127     0     0    29  1.216     1   255     0     0     0
 2020 194    89    43     5   127     0     0    29  1.216     1   255     0     0     0
 2020 195    90    44     5   127     0     0    29  1.216     1   255     0     0     0
 2020 196    91    45     5   127     0     0    29  1.216     1   255     0     0     0
 2020 197    92    46     5   127     0     0    29  1.216     1   255     0     0     0
 2020 198    93    47     5   127     0     0    29  1.216     1   255     0     0     0
 2020 199    94    48     5   127     0     0    29  1.216     1   255     0     0     0
 2020 200    95    49     5   127     0     0    29  1.216     1   255     0     0     0
 2020 201    96    50     5   127     0     0    29  1.216     1   255     0     0     0
 2020 202    97    51     5   127     0     0    29  1.216     1   255     0     0     0
 2020 203    98    52     5   127     0     0    29  1.216     1   255     0     0     0
 2020 204    99    53     5   127     0     0    29  1.216     1   255     0     0     0
 2020 205   100    54     5   127     0     0    29  1.216     1   255     0     0     0
 2020 206   101    55     5   127     0     0    29  1.216     1   255     0     0     0
 2020 207   102    56     5   127     0     0    29  1.216     1   255     0     0     0
 2020 208   103    57     5   127     0     0    29  1.216     1   255     0     0     0
 2020 209   104    58     5   127     0     0    29  1.216     1   255     0     0     0
 2020 210   105    59     5   127     0     0    29  1.216     1   255     0     0     0
 2020 211   106    60     5   127     0     0    29  1.216     1   255     0     0     0
 2020 212   107    61     5   127     0     0    29  1.216     1   255     0     0     0
 2020 213   108    62     5   127     0     0    29  1.216     1   255     0     0     0
 2020 214   109    63     5   127     0     0    29  1.216     1   255     0     0     0
 2020 215   110    64     5   127     0     0    29  1.216     1   255     0     0     0
 2020 216   111    65     5   127     0     0    29  1.216     1   255     0     0     0
 2020 217   112    66     5   127     0     0    29  1.216     1   255     0     0     0
 2020 218   113    67     5   127     0     0    29  1.216     1   255     0     0     0
 2020 219   114    68     5   127     0     0    29  1.216     1   255     0     0     0
 2020 220   115    69     5   127     0     0    29  1.216     1   255     0     0     0
 2020 221   116    70     5   127     0     0    29  1.216     1   255     0     0     0
 2020 222   117    71     5   127     0     0    29  1.216     1   255     0     0     0
 2020 223   118    72     5   127     0     0    29  1.216     1   255     0     0     0
 2020 224   119    73     5   127     0     0    29  1.216     1   255     0     0     0
 2020 225   120    74     5   127     0     0    29  1.216     1   255     0     0     0
 2020 226   121    75     5   127     0     0    29  1.216     1   255     0     0     0
 2020 227   122    76     5   127     0     0    29  1.216     1   255     0     0     0
 2020 228   123    77     5   127     0     0    29  1.216     1   255     0     0     0
 2020 229   124    78     5   127     0     0    29  1.216     1   255     0     0     0
 2020 230   125    79     6   152     0     0    29  1.216     1   255     0     0     0
 2020 231   126    80     6   152     0     0    29  1.216     1   255     0     0     0
 2020 232   127    81     6   152     0     0    29  1.216     1   255     0     0     0
 2020 233   128    82     6   152     0     0    29  1.216     1   255     0     0     0
 2020 234   129    83     6   152     0     0    29  1.216     1   255     0     0     0
 2020 235   130    84     6   152     0     0    29  1.216     1   255     0     0     0
 2020 236   131    85     6   152     0     0    29  1.216     1   255     0     0     0
 2020 237   132    86     7   178     0     0    29  1.216     1   255     0     0     0
 2020 238   133    87     7   178     0     0    29  1.216     1   255     0     0     0
 2020 239   134    88     7   178     0     0    29  1.216     1   255     0     0     0
 2020 240   135    89     7   178     0     0    29  1.216     1   255     0     0     0
 2020 241   136    90     7   178     0     0    29  1.216     1   255     0     0     0
 2020 242   137    91     7   178     0     0    29  1.216     1   255     0     0     0
 2020 243   138    92     7   178     0     0    29  1.216     1   255     0     0     0
 2020 244   139    93     8   203     0     0    29  1.216     1   255     0     0     0
 2020 245   140    94     8   203     0     0    29  1.216     1   255     0     0     0
 2020 246   141    95     8   203     0     0    29  1.216     1   255     0     0     0
 2020 247   142    96     8   203     0     0    29  1.216     1   255     0     0     0
 2020 248   143    97     8   203     0     0    29  1.216     1   255     0     0     0
 2020 249   144    98     8   203     0     0    29  1.216     1   255     0     0     0
 2020 250   145    99     8   203     0     0    29  1.216     1   255     0     0     0
 2020 251   146   100     9   229     0     0    29  1.216     1   255     0     0     0
 2020 252   147   101     9   229     0     0    29  1.216     1   255     0     0     0
 2020 253   148   102     9   229     0     0    29  1.216     1   255     0     0     0
 2020 254   149   103     9   229     0     0    29  1.216     1   255     0     0     0
 2020 255   150   104     9   229     0     0    29  1.216     1   255     0     0     0
 2020 256   151   105     9   229     0     0    29  1.216     1   255     0     0     0
 2020 257   152   106     9   229     0     0    29  1.216     1   255     0     0     0
 2020 258   153   107     9   229     0     0    29  1.216     1   255     0     0     0
 2020 259   154   108    10   254     0     0    29  1.216     1   255     0     0     0
 2020 260   155   109    10   254     0     0    29  1.216     1   255     0     0     0
 2020 261   156   110    10   254     0     0    29  1.216     1   255     0     0     0
 2020 262   157   111    10   254     0     0    29  1.216     1   255     0     0     0
 2020 263   158   112    10   254     0     0    29  1.216     1   255     0     0     0
 2020 264   159   113    10   254     0     0    29  1.216     1   255     0     0     0
 2020 265   160   114    11   279     0     0    29  1.216     1   255     0     0     0
 2020 266   161   115    11   279     0     0    29  1.216     1   255     0     0     0
 2020 267   162   116    11   279     0     0    29  1.216     1   255     0     0     0
 2020 268   163   117    11   279     0     0    29  1.216     1   255     0     0     0
 2020 269   164   118    11   279     0     0    29  1.216     1   255     0     0     0
 2020 270   165   119    11   279     0     0    29  1.216     1   255     0     0     0
 2020 271   166   120    11   279     0     0    29  1.216     1   255     0     0     0
 2020 272   167   121    11   279     0     0    29  1.216     1   255     0     0     0
 2020 273   168   122    11   279     0     0    29  1.216     1   255     0     0     0
 2020 274   169   123    11   279     0     0    29  1.216     1   255     0     0     0
 2020 275   170   124    11   279     0     0    29  1.216     1   255     0     0     0
 2020 276   171   125    11   279     0     0    29  1.216     1   255     0     0     0
 2020 277   172   126    11   279     0     0    29  1.216     1   255     0     0     0

*DSSAT Cropping System Model Ver. 4.7.5.035 -develop  JUN 14, 2021 14:17:00

*RUN   2        : 20 IRRIG, PETPEN KCB..... MZCER047 KSRT2001    2
 MODEL          : MZCER047 - Maize
 EXPERIMENT     : KSRT2001 SB ARM 2020 KS, IRRIGATED
 DATA PATH      :
 TREATMENT  2   : 20 IRRIG, PETPEN KCB..... MZCER047
  

@YEAR DOY   DAS   DAP  IR#C  IRRC  TL#C  TLDD DLYR3   TLBD  NAPC  NICM  R#AC RESNC RESPC
 2020 106     1     0     0     0     0     0    29  1.216     0     0     0     0     0
 2020 107     2     0     0     0     0     0    29  1.216     0     0     0     0     0
 2020 108     3     0     0     0     0     0    29  1.216     0     0     0     0     0
 2020 109     4     0     0     0     0     0    29  1.216     0     0     0     0     0
 2020 110     5     0     0     0     0     0    29  1.216     0     0     0     0     0
 2020 111     6     0     0     0     0     0    29  1.216     0     0     0     0     0
 2020 112     7     0     0     0     0     0    29  1.216     0     0     0     0     0
 2020 113     8     0     0     0     0     0    29  1.216     0     0     0     0     0
 2020 114     9     0     0     0     0     0    29  1.216     0     0     0     0     0
 2020 115    10     0     0     0     0     0    29  1.216     0     0     0     0     0
 2020 116    11     0     0     0     0     0    29  1.216     0     0     0     0     0
 2020 117    12     0     0     0     0     0    29  1.216     0     0     0     0     0
 2020 118    13     0     0     0     0     0    29  1.216     0     0     0     0     0
 2020 119    14     0     0     0     0     0    29  1.216     0     0     0     0     0
 2020 120    15     0     0     0     0     0    29  1.216     0     0     0     0     0
 2020 121    16     0     0     0     0     0    29  1.216     0     0     0     0     0
 2020 122    17     0     0     0     0     0    29  1.216     0     0     0     0     0
 2020 123    18     0     0     0     0     0    29  1.216     0     0     0     0     0
 2020 124    19     0     0     0     0     0    29  1.216     0     0     0     0     0
 2020 125    20     0     0     0     0     0    29  1.216     0     0     0     0     0
 2020 126    21     0     0     0     0     0    29  1.216     0     0     0     0     0
 2020 127    22     0     0     0     0     0    29  1.216     0     0     0     0     0
 2020 128    23     0     0     0     0     0    29  1.216     0     0     0     0     0
 2020 129    24     0     0     0     0     0    29  1.216     0     0     0     0     0
 2020 130    25     0     0     0     0     0    29  1.216     0     0     0     0     0
 2020 131    26     0     0     0     0     0    29  1.216     0     0     0     0     0
 2020 132    27     0     0     0     0     0    29  1.216     0     0     0     0     0
 2020 133    28     0     0     0     0     0    29  1.216     0     0     0     0     0
 2020 134    29     0     0     0     0     0    29  1.216     0     0     0     0     0
 2020 135    30     0     0     0     0     0    29  1.216     0     0     0     0     0
 2020 136    31     0     0     0     0     0    29  1.216     0     0     0     0     0
 2020 137    32     0     0     0     0     0    29  1.216     0     0     0     0     0
 2020 138    33     0     0     0     0     0    29  1.216     0     0     0     0     0
 2020 139    34     0     0     0     0     0    29  1.216     0     0     0     0     0
 2020 140    35     0     0     0     0     0    29  1.216     0     0     0     0     0
 2020 141    36     0     0     0     0     0    29  1.216     0     0     0     0     0
 2020 142    37     0     0     0     0     0    29  1.216     0     0     0     0     0
 2020 143    38     0     0     0     0     0    29  1.216     0     0     0     0     0
 2020 144    39     0     0     0     0     0    29  1.216     0     0     0     0     0
 2020 145    40     0     0     0     0     0    29  1.216     1   255     0     0     0
 2020 146    41     0     0     0     0     0    29  1.216     1   255     0     0     0
 2020 147    42     0     0     0     0     0    29  1.216     1   255     0     0     0
 2020 148    43     0     1    25     0     0    29  1.216     1   255     0     0     0
 2020 149    44     0     1    25     0     0    29  1.216     1   255     0     0     0
 2020 150    45     0     1    25     0     0    29  1.216     1   255     0     0     0
 2020 151    46     0     1    25     0     0    29  1.216     1   255     0     0     0
 2020 152    47     1     1    25     0     0    29  1.216     1   255     0     0     0
 2020 153    48     2     1    25     0     0    29  1.216     1   255     0     0     0
 2020 154    49     3     1    25     0     0    29  1.216     1   255     0     0     0
 2020 155    50     4     1    25     0     0    29  1.216     1   255     0     0     0
 2020 156    51     5     1    25     0     0    29  1.216     1   255     0     0     0
 2020 157    52     6     1    25     0     0    29  1.216     1   255     0     0     0
 2020 158    53     7     2    51     0     0    29  1.216     1   255     0     0     0
 2020 159    54     8     2    51     0     0    29  1.216     1   255     0     0     0
 2020 160    55     9     2    51     0     0    29  1.216     1   255     0     0     0
 2020 161    56    10     2    51     0     0    29  1.216     1   255     0     0     0
 2020 162    57    11     2    51     0     0    29  1.216     1   255     0     0     0
 2020 163    58    12     2    51     0     0    29  1.216     1   255     0     0     0
 2020 164    59    13     2    51     0     0    29  1.216     1   255     0     0     0
 2020 165    60    14     2    51     0     0    29  1.216     1   255     0     0     0
 2020 166    61    15     2    51     0     0    29  1.216     1   255     0     0     0
 2020 167    62    16     3    76     0     0    29  1.216     1   255     0     0     0
 2020 168    63    17     3    76     0     0    29  1.216     1   255     0     0     0
 2020 169    64    18     3    76     0     0    29  1.216     1   255     0     0     0
 2020 170    65    19     3    76     0     0    29  1.216     1   255     0     0     0
 2020 171    66    20     3    76     0     0    29  1.216     1   255     0     0     0
 2020 172    67    21     3    76     0     0    29  1.216     1   255     0     0     0
 2020 173    68    22     3    76     0     0    29  1.216     1   255     0     0     0
 2020 174    69    23     4   102     0     0    29  1.216     1   255     0     0     0
 2020 175    70    24     4   102     0     0    29  1.216     1   255     0     0     0
 2020 176    71    25     4   102     0     0    29  1.216     1   255     0     0     0
 2020 177    72    26     4   102     0     0    29  1.216     1   255     0     0     0
 2020 178    73    27     4   102     0     0    29  1.216     1   255     0     0     0
 2020 179    74    28     4   102     0     0    29  1.216     1   255     0     0     0
 2020 180    75    29     4   102     0     0    29  1.216     1   255     0     0     0
 2020 181    76    30     5   127     0     0    29  1.216     1   255     0     0     0
 2020 182    77    31     5   127     0     0    29  1.216     1   255     0     0     0
 2020 183    78    32     5   127     0     0    29  1.216     1   255     0     0     0
 2020 184    79    33     5   127     0     0    29  1.216     1   255     0     0     0
 2020 185    80    34     5   127     0     0    29  1.216     1   255     0     0     0
 2020 186    81    35     5   127     0     0    29  1.216     1   255     0     0     0
 2020 187    82    36     5   127     0     0    29  1.216     1   255     0     0     0
 2020 188    83    37     5   127     0     0    29  1.216     1   255     0     0     0
 2020 189    84    38     5   127     0     0    29  1.216     1   255     0     0     0
 2020 190    85    39     5   127     0     0    29  1.216     1   255     0     0     0
 2020 191    86    40     5   127     0     0    29  1.216     1   255     0     0     0
 2020 192    87    41     5   127     0     0    29  1.216     1   255     0     0     0
 2020 193    88    42     5   127     0     0    29  1.216     1   255     0     0     0
 2020 194    89    43     5   127     0     0    29  1.216     1   255     0     0     0
 2020 195    90    44     5   127     0     0    29  1.216     1   255     0     0     0
 2020 196    91    45     5   127     0     0    29  1.216     1   255     0     0     0
 2020 197    92    46     5   127     0     0    29  1.216     1   255     0     0     0
 2020 198    93    47     5   127     0     0    29  1.216     1   255     0     0     0
 2020 199    94    48     5   127     0     0    29  1.216     1   255     0     0     0
 2020 200    95    49     5   127     0     0    29  1.216     1   255     0     0     0
 2020 201    96    50     5   127     0     0    29  1.216     1   255     0     0     0
 2020 202    97    51     5   127     0     0    29  1.216     1   255     0     0     0
 2020 203    98    52     5   127     0     0    29  1.216     1   255     0     0     0
 2020 204    99    53     5   127     0     0    29  1.216     1   255     0     0     0
 2020 205   100    54     5   127     0     0    29  1.216     1   255     0     0     0
 2020 206   101    55     5   127     0     0    29  1.216     1   255     0     0     0
 2020 207   102    56     5   127     0     0    29  1.216     1   255     0     0     0
 2020 208   103    57     5   127     0     0    29  1.216     1   255     0     0     0
 2020 209   104    58     5   127     0     0    29  1.216     1   255     0     0     0
 2020 210   105    59     5   127     0     0    29  1.216     1   255     0     0     0
 2020 211   106    60     5   127     0     0    29  1.216     1   255     0     0     0
 2020 212   107    61     5   127     0     0    29  1.216     1   255     0     0     0
 2020 213   108    62     5   127     0     0    29  1.216     1   255     0     0     0
 2020 214   109    63     5   127     0     0    29  1.216     1   255     0     0     0
 2020 215   110    64     5   127     0     0    29  1.216     1   255     0     0     0
 2020 216   111    65     5   127     0     0    29  1.216     1   255     0     0     0
 2020 217   112    66     5   127     0     0    29  1.216     1   255     0     0     0
 2020 218   113    67     5   127     0     0    29  1.216     1   255     0     0     0
 2020 219   114    68     5   127     0     0    29  1.216     1   255     0     0     0
 2020 220   115    69     5   127     0     0    29  1.216     1   255     0     0     0
 2020 221   116    70     5   127     0     0    29  1.216     1   255     0     0     0
 2020 222   117    71     5   127     0     0    29  1.216     1   255     0     0     0
 2020 223   118    72     5   127     0     0    29  1.216     1   255     0     0     0
 2020 224   119    73     5   127     0     0    29  1.216     1   255     0     0     0
 2020 225   120    74     5   127     0     0    29  1.216     1   255     0     0     0
 2020 226   121    75     5   127     0     0    29  1.216     1   255     0     0     0
 2020 227   122    76     5   127     0     0    29  1.216     1   255     0     0     0
 2020 228   123    77     5   127     0     0    29  1.216     1   255     0     0     0
 2020 229   124    78     5   127     0     0    29  1.216     1   255     0     0     0
 2020 230   125    79     6   152     0     0    29  1.216     1   255     0     0     0
 2020 231   126    80     6   152     0     0    29  1.216     1   255     0     0     0
 2020 232   127    81     6   152     0     0    29  1.216     1   255     0     0     0
 2020 233   128    82     6   152     0     0    29  1.216     1   255     0     0     0
 2020 234   129    83     6   152     0     0    29  1.216     1   255     0     0     0
 2020 235   130    84     6   152     0     0    29  1.216     1   255     0     0     0
 2020 236   131    85     6   152     0     0    29  1.216     1   255     0     0     0
 2020 237   132    86     7   178     0     0    29  1.216     1   255     0     0     0
 2020 238   133    87     7   178     0     0    29  1.216     1   255     0     0     0
 2020 239   134    88     7   178     0     0    29  1.216     1   255     0     0     0
 2020 240   135    89     7   178     0     0    29  1.216     1   255     0     0     0
 2020 241   136    90     7   178     0     0    29  1.216     1   255     0     0     0
 2020 242   137    91     7   178     0     0    29  1.216     1   255     0     0     0
 2020 243   138    92     7   178     0     0    29  1.216     1   255     0     0     0
 2020 244   139    93     8   203     0     0    29  1.216     1   255     0     0     0
 2020 245   140    94     8   203     0     0    29  1.216     1   255     0     0     0
 2020 246   141    95     8   203     0     0    29  1.216     1   255     0     0     0
 2020 247   142    96     8   203     0     0    29  1.216     1   255     0     0     0
 2020 248   143    97     8   203     0     0    29  1.216     1   255     0     0     0
 2020 249   144    98     8   203     0     0    29  1.216     1   255     0     0     0
 2020 250   145    99     8   203     0     0    29  1.216     1   255     0     0     0
 2020 251   146   100     9   229     0     0    29  1.216     1   255     0     0     0
 2020 252   147   101     9   229     0     0    29  1.216     1   255     0     0     0
 2020 253   148   102     9   229     0     0    29  1.216     1   255     0     0     0
 2020 254   149   103     9   229     0     0    29  1.216     1   255     0     0     0
 2020 255   150   104     9   229     0     0    29  1.216     1   255     0     0     0
 2020 256   151   105     9   229     0     0    29  1.216     1   255     0     0     0
 2020 257   152   106     9   229     0     0    29  1.216     1   255     0     0     0
 2020 258   153   107     9   229     0     0    29  1.216     1   255     0     0     0
 2020 259   154   108    10   254     0     0    29  1.216     1   255     0     0     0
 2020 260   155   109    10   254     0     0    29  1.216     1   255     0     0     0
 2020 261   156   110    10   254     0     0    29  1.216     1   255     0     0     0
 2020 262   157   111    10   254     0     0    29  1.216     1   255     0     0     0
 2020 263   158   112    10   254     0     0    29  1.216     1   255     0     0     0
 2020 264   159   113    10   254     0     0    29  1.216     1   255     0     0     0
 2020 265   160   114    11   279     0     0    29  1.216     1   255     0     0     0
 2020 266   161   115    11   279     0     0    29  1.216     1   255     0     0     0
 2020 267   162   116    11   279     0     0    29  1.216     1   255     0     0     0
 2020 268   163   117    11   279     0     0    29  1.216     1   255     0     0     0
 2020 269   164   118    11   279     0     0    29  1.216     1   255     0     0     0
 2020 270   165   119    11   279     0     0    29  1.216     1   255     0     0     0
 2020 271   166   120    11   279     0     0    29  1.216     1   255     0     0     0
 2020 272   167   121    11   279     0     0    29  1.216     1   255     0     0     0
 2020 273   168   122    11   279     0     0    29  1.216     1   255     0     0     0
 2020 274   169   123    11   279     0     0    29  1.216     1   255     0     0     0
 2020 275   170   124    11   279     0     0    29  1.216     1   255     0     0     0
 2020 276   171   125    11   279     0     0    29  1.216     1   255     0     0     0
 2020 277   172   126    11   279     0     0    29  1.216     1   255     0     0     0

*DSSAT Cropping System Model Ver. 4.7.5.035 -develop  JUN 14, 2021 14:17:00

*RUN   3        : 20 IRRIG, ASCE SHORT..... MZCER047 KSRT2001    3
 MODEL          : MZCER047 - Maize
 EXPERIMENT     : KSRT2001 SB ARM 2020 KS, IRRIGATED
 DATA PATH      :
 TREATMENT  3   : 20 IRRIG, ASCE SHORT..... MZCER047
  

@YEAR DOY   DAS   DAP  IR#C  IRRC  TL#C  TLDD DLYR3   TLBD  NAPC  NICM  R#AC RESNC RESPC
 2020 106     1     0     0     0     0     0    29  1.216     0     0     0     0     0
 2020 107     2     0     0     0     0     0    29  1.216     0     0     0     0     0
 2020 108     3     0     0     0     0     0    29  1.216     0     0     0     0     0
 2020 109     4     0     0     0     0     0    29  1.216     0     0     0     0     0
 2020 110     5     0     0     0     0     0    29  1.216     0     0     0     0     0
 2020 111     6     0     0     0     0     0    29  1.216     0     0     0     0     0
 2020 112     7     0     0     0     0     0    29  1.216     0     0     0     0     0
 2020 113     8     0     0     0     0     0    29  1.216     0     0     0     0     0
 2020 114     9     0     0     0     0     0    29  1.216     0     0     0     0     0
 2020 115    10     0     0     0     0     0    29  1.216     0     0     0     0     0
 2020 116    11     0     0     0     0     0    29  1.216     0     0     0     0     0
 2020 117    12     0     0     0     0     0    29  1.216     0     0     0     0     0
 2020 118    13     0     0     0     0     0    29  1.216     0     0     0     0     0
 2020 119    14     0     0     0     0     0    29  1.216     0     0     0     0     0
 2020 120    15     0     0     0     0     0    29  1.216     0     0     0     0     0
 2020 121    16     0     0     0     0     0    29  1.216     0     0     0     0     0
 2020 122    17     0     0     0     0     0    29  1.216     0     0     0     0     0
 2020 123    18     0     0     0     0     0    29  1.216     0     0     0     0     0
 2020 124    19     0     0     0     0     0    29  1.216     0     0     0     0     0
 2020 125    20     0     0     0     0     0    29  1.216     0     0     0     0     0
 2020 126    21     0     0     0     0     0    29  1.216     0     0     0     0     0
 2020 127    22     0     0     0     0     0    29  1.216     0     0     0     0     0
 2020 128    23     0     0     0     0     0    29  1.216     0     0     0     0     0
 2020 129    24     0     0     0     0     0    29  1.216     0     0     0     0     0
 2020 130    25     0     0     0     0     0    29  1.216     0     0     0     0     0
 2020 131    26     0     0     0     0     0    29  1.216     0     0     0     0     0
 2020 132    27     0     0     0     0     0    29  1.216     0     0     0     0     0
 2020 133    28     0     0     0     0     0    29  1.216     0     0     0     0     0
 2020 134    29     0     0     0     0     0    29  1.216     0     0     0     0     0
 2020 135    30     0     0     0     0     0    29  1.216     0     0     0     0     0
 2020 136    31     0     0     0     0     0    29  1.216     0     0     0     0     0
 2020 137    32     0     0     0     0     0    29  1.216     0     0     0     0     0
 2020 138    33     0     0     0     0     0    29  1.216     0     0     0     0     0
 2020 139    34     0     0     0     0     0    29  1.216     0     0     0     0     0
 2020 140    35     0     0     0     0     0    29  1.216     0     0     0     0     0
 2020 141    36     0     0     0     0     0    29  1.216     0     0     0     0     0
 2020 142    37     0     0     0     0     0    29  1.216     0     0     0     0     0
 2020 143    38     0     0     0     0     0    29  1.216     0     0     0     0     0
 2020 144    39     0     0     0     0     0    29  1.216     0     0     0     0     0
 2020 145    40     0     0     0     0     0    29  1.216     1   255     0     0     0
 2020 146    41     0     0     0     0     0    29  1.216     1   255     0     0     0
 2020 147    42     0     0     0     0     0    29  1.216     1   255     0     0     0
 2020 148    43     0     1    25     0     0    29  1.216     1   255     0     0     0
 2020 149    44     0     1    25     0     0    29  1.216     1   255     0     0     0
 2020 150    45     0     1    25     0     0    29  1.216     1   255     0     0     0
 2020 151    46     0     1    25     0     0    29  1.216     1   255     0     0     0
 2020 152    47     1     1    25     0     0    29  1.216     1   255     0     0     0
 2020 153    48     2     1    25     0     0    29  1.216     1   255     0     0     0
 2020 154    49     3     1    25     0     0    29  1.216     1   255     0     0     0
 2020 155    50     4     1    25     0     0    29  1.216     1   255     0     0     0
 2020 156    51     5     1    25     0     0    29  1.216     1   255     0     0     0
 2020 157    52     6     1    25     0     0    29  1.216     1   255     0     0     0
 2020 158    53     7     2    51     0     0    29  1.216     1   255     0     0     0
 2020 159    54     8     2    51     0     0    29  1.216     1   255     0     0     0
 2020 160    55     9     2    51     0     0    29  1.216     1   255     0     0     0
 2020 161    56    10     2    51     0     0    29  1.216     1   255     0     0     0
 2020 162    57    11     2    51     0     0    29  1.216     1   255     0     0     0
 2020 163    58    12     2    51     0     0    29  1.216     1   255     0     0     0
 2020 164    59    13     2    51     0     0    29  1.216     1   255     0     0     0
 2020 165    60    14     2    51     0     0    29  1.216     1   255     0     0     0
 2020 166    61    15     2    51     0     0    29  1.216     1   255     0     0     0
 2020 167    62    16     3    76     0     0    29  1.216     1   255     0     0     0
 2020 168    63    17     3    76     0     0    29  1.216     1   255     0     0     0
 2020 169    64    18     3    76     0     0    29  1.216     1   255     0     0     0
 2020 170    65    19     3    76     0     0    29  1.216     1   255     0     0     0
 2020 171    66    20     3    76     0     0    29  1.216     1   255     0     0     0
 2020 172    67    21     3    76     0     0    29  1.216     1   255     0     0     0
 2020 173    68    22     3    76     0     0    29  1.216     1   255     0     0     0
 2020 174    69    23     4   102     0     0    29  1.216     1   255     0     0     0
 2020 175    70    24     4   102     0     0    29  1.216     1   255     0     0     0
 2020 176    71    25     4   102     0     0    29  1.216     1   255     0     0     0
 2020 177    72    26     4   102     0     0    29  1.216     1   255     0     0     0
 2020 178    73    27     4   102     0     0    29  1.216     1   255     0     0     0
 2020 179    74    28     4   102     0     0    29  1.216     1   255     0     0     0
 2020 180    75    29     4   102     0     0    29  1.216     1   255     0     0     0
 2020 181    76    30     5   127     0     0    29  1.216     1   255     0     0     0
 2020 182    77    31     5   127     0     0    29  1.216     1   255     0     0     0
 2020 183    78    32     5   127     0     0    29  1.216     1   255     0     0     0
 2020 184    79    33     5   127     0     0    29  1.216     1   255     0     0     0
 2020 185    80    34     5   127     0     0    29  1.216     1   255     0     0     0
 2020 186    81    35     5   127     0     0    29  1.216     1   255     0     0     0
 2020 187    82    36     5   127     0     0    29  1.216     1   255     0     0     0
 2020 188    83    37     5   127     0     0    29  1.216     1   255     0     0     0
 2020 189    84    38     5   127     0     0    29  1.216     1   255     0     0     0
 2020 190    85    39     5   127     0     0    29  1.216     1   255     0     0     0
 2020 191    86    40     5   127     0     0    29  1.216     1   255     0     0     0
 2020 192    87    41     5   127     0     0    29  1.216     1   255     0     0     0
 2020 193    88    42     5   127     0     0    29  1.216     1   255     0     0     0
 2020 194    89    43     5   127     0     0    29  1.216     1   255     0     0     0
 2020 195    90    44     5   127     0     0    29  1.216     1   255     0     0     0
 2020 196    91    45     5   127     0     0    29  1.216     1   255     0     0     0
 2020 197    92    46     5   127     0     0    29  1.216     1   255     0     0     0
 2020 198    93    47     5   127     0     0    29  1.216     1   255     0     0     0
 2020 199    94    48     5   127     0     0    29  1.216     1   255     0     0     0
 2020 200    95    49     5   127     0     0    29  1.216     1   255     0     0     0
 2020 201    96    50     5   127     0     0    29  1.216     1   255     0     0     0
 2020 202    97    51     5   127     0     0    29  1.216     1   255     0     0     0
 2020 203    98    52     5   127     0     0    29  1.216     1   255     0     0     0
 2020 204    99    53     5   127     0     0    29  1.216     1   255     0     0     0
 2020 205   100    54     5   127     0     0    29  1.216     1   255     0     0     0
 2020 206   101    55     5   127     0     0    29  1.216     1   255     0     0     0
 2020 207   102    56     5   127     0     0    29  1.216     1   255     0     0     0
 2020 208   103    57     5   127     0     0    29  1.216     1   255     0     0     0
 2020 209   104    58     5   127     0     0    29  1.216     1   255     0     0     0
 2020 210   105    59     5   127     0     0    29  1.216     1   255     0     0     0
 2020 211   106    60     5   127     0     0    29  1.216     1   255     0     0     0
 2020 212   107    61     5   127     0     0    29  1.216     1   255     0     0     0
 2020 213   108    62     5   127     0     0    29  1.216     1   255     0     0     0
 2020 214   109    63     5   127     0     0    29  1.216     1   255     0     0     0
 2020 215   110    64     5   127     0     0    29  1.216     1   255     0     0     0
 2020 216   111    65     5   127     0     0    29  1.216     1   255     0     0     0
 2020 217   112    66     5   127     0     0    29  1.216     1   255     0     0     0
 2020 218   113    67     5   127     0     0    29  1.216     1   255     0     0     0
 2020 219   114    68     5   127     0     0    29  1.216     1   255     0     0     0
 2020 220   115    69     5   127     0     0    29  1.216     1   255     0     0     0
 2020 221   116    70     5   127     0     0    29  1.216     1   255     0     0     0
 2020 222   117    71     5   127     0     0    29  1.216     1   255     0     0     0
 2020 223   118    72     5   127     0     0    29  1.216     1   255     0     0     0
 2020 224   119    73     5   127     0     0    29  1.216     1   255     0     0     0
 2020 225   120    74     5   127     0     0    29  1.216     1   255     0     0     0
 2020 226   121    75     5   127     0     0    29  1.216     1   255     0     0     0
 2020 227   122    76     5   127     0     0    29  1.216     1   255     0     0     0
 2020 228   123    77     5   127     0     0    29  1.216     1   255     0     0     0
 2020 229   124    78     5   127     0     0    29  1.216     1   255     0     0     0
 2020 230   125    79     6   152     0     0    29  1.216     1   255     0     0     0
 2020 231   126    80     6   152     0     0    29  1.216     1   255     0     0     0
 2020 232   127    81     6   152     0     0    29  1.216     1   255     0     0     0
 2020 233   128    82     6   152     0     0    29  1.216     1   255     0     0     0
 2020 234   129    83     6   152     0     0    29  1.216     1   255     0     0     0
 2020 235   130    84     6   152     0     0    29  1.216     1   255     0     0     0
 2020 236   131    85     6   152     0     0    29  1.216     1   255     0     0     0
 2020 237   132    86     7   178     0     0    29  1.216     1   255     0     0     0
 2020 238   133    87     7   178     0     0    29  1.216     1   255     0     0     0
 2020 239   134    88     7   178     0     0    29  1.216     1   255     0     0     0
 2020 240   135    89     7   178     0     0    29  1.216     1   255     0     0     0
 2020 241   136    90     7   178     0     0    29  1.216     1   255     0     0     0
 2020 242   137    91     7   178     0     0    29  1.216     1   255     0     0     0
 2020 243   138    92     7   178     0     0    29  1.216     1   255     0     0     0
 2020 244   139    93     8   203     0     0    29  1.216     1   255     0     0     0
 2020 245   140    94     8   203     0     0    29  1.216     1   255     0     0     0
 2020 246   141    95     8   203     0     0    29  1.216     1   255     0     0     0
 2020 247   142    96     8   203     0     0    29  1.216     1   255     0     0     0
 2020 248   143    97     8   203     0     0    29  1.216     1   255     0     0     0
 2020 249   144    98     8   203     0     0    29  1.216     1   255     0     0     0
 2020 250   145    99     8   203     0     0    29  1.216     1   255     0     0     0
 2020 251   146   100     9   229     0     0    29  1.216     1   255     0     0     0
 2020 252   147   101     9   229     0     0    29  1.216     1   255     0     0     0
 2020 253   148   102     9   229     0     0    29  1.216     1   255     0     0     0
 2020 254   149   103     9   229     0     0    29  1.216     1   255     0     0     0
 2020 255   150   104     9   229     0     0    29  1.216     1   255     0     0     0
 2020 256   151   105     9   229     0     0    29  1.216     1   255     0     0     0
 2020 257   152   106     9   229     0     0    29  1.216     1   255     0     0     0
 2020 258   153   107     9   229     0     0    29  1.216     1   255     0     0     0
 2020 259   154   108    10   254     0     0    29  1.216     1   255     0     0     0
 2020 260   155   109    10   254     0     0    29  1.216     1   255     0     0     0
 2020 261   156   110    10   254     0     0    29  1.216     1   255     0     0     0
 2020 262   157   111    10   254     0     0    29  1.216     1   255     0     0     0
 2020 263   158   112    10   254     0     0    29  1.216     1   255     0     0     0
 2020 264   159   113    10   254     0     0    29  1.216     1   255     0     0     0
 2020 265   160   114    11   279     0     0    29  1.216     1   255     0     0     0
 2020 266   161   115    11   279     0     0    29  1.216     1   255     0     0     0
 2020 267   162   116    11   279     0     0    29  1.216     1   255     0     0     0
 2020 268   163   117    11   279     0     0    29  1.216     1   255     0     0     0
 2020 269   164   118    11   279     0     0    29  1.216     1   255     0     0     0
 2020 270   165   119    11   279     0     0    29  1.216     1   255     0     0     0
 2020 271   166   120    11   279     0     0    29  1.216     1   255     0     0     0
 2020 272   167   121    11   279     0     0    29  1.216     1   255     0     0     0
 2020 273   168   122    11   279     0     0    29  1.216     1   255     0     0     0
 2020 274   169   123    11   279     0     0    29  1.216     1   255     0     0     0
 2020 275   170   124    11   279     0     0    29  1.216     1   255     0     0     0
 2020 276   171   125    11   279     0     0    29  1.216     1   255     0     0     0
 2020 277   172   126    11   279     0     0    29  1.216     1   255     0     0     0
