*N2O emissions output file

*DSSAT Cropping System Model Ver. 4.7.5.035 -develop  JUN 11, 2021 16:21:59

*RUN   1        : 20 IRRIG, PETPEN NO KCB.. MZCER047 KSRT2001    1
 MODEL          : MZCER047 - Maize
 EXPERIMENT     : KSRT2001 SB ARM 2020 KS, IRRIGATED & NON-IRRIGATED
 DATA PATH      :
 TREATMENT  1   : 20 IRRIG, PETPEN NO KCB.. MZCER047
  
!              |---------------------------------- Cumulative ---------------------------------|---------------------------------- Daily --------------------------------------|
!               N2Oemit  N2emit  NOemit     CO2   Denit  Nitrif   N2O-denit+nit      N2      NO N2Oemit  N2emit  NOemit     CO2   Denit  Nitrif   N2O-denit+nit      N2      NO   Denitrification (g[N]/ha) by soil depth (cm):                   Nitrification (g[N]/ha) by soil depth (cm):                     N2O flux (g[N]/ha) by soil depth (cm):                          N2 flux (g[N]/ha) by soil depth (cm):                           NO flux (g[N]/ha) by soil depth (cm):
!                 kg/ha   kg/ha   kg/ha   kg/ha   kg/ha   kg/ha   kg/ha   kg/ha   kg/ha   kg/ha    g/ha    g/ha    g/ha    g/ha    g/ha    g/ha    g/ha    g/ha    g/ha    g/ha     0-5    5-15   15-29   29-43   43-53   53-64  64-132 132-201     0-5    5-15   15-29   29-43   43-53   53-64  64-132 132-201     0-5    5-15   15-29   29-43   43-53   53-64  64-132 132-201     0-5    5-15   15-29   29-43   43-53   53-64  64-132 132-201     0-5    5-15   15-29   29-43   43-53   53-64  64-132 132-201
@YEAR DOY   DAS   N2OEC    N2EC    NOEC   CO2TC    NDNC    NITC   N2ODC   N2ONC   N2FLC   NOFLC   N2OED    N2ED    NOED   CO2TD    NDND   NITRD   N2ODD   N2OND   N2FLD   NOFLD   NDN1D   NDN2D   NDN3D   NDN4D   NDN5D   NDN6D   NDN7D   NDN8D   NIT1D   NIT2D   NIT3D   NIT4D   NIT5D   NIT6D   NIT7D   NIT8D   N2O1D   N2O2D   N2O3D   N2O4D   N2O5D   N2O6D   N2O7D   N2O8D   N2F1D   N2F2D   N2F3D   N2F4D   N2F5D   N2F6D   N2F7D   N2F8D   NOF1D   NOF2D   NOF3D   NOF4D   NOF5D   NOF6D   NOF7D   NOF8D   
 2020 106     1    0.00    0.00    0.00       6    0.00     0.6   0.000   0.001   0.000   0.001     0.0     0.0     0.0    5549     0.0     644    0.00    0.64    0.00    0.79     0.0     0.0     0.0     0.0     0.0     0.0     0.0     0.0     16.     32.     43.     43.     30.     33.    217.    229.     0.0     0.0     0.0     0.0     0.0     0.0     0.2     0.2     0.0     0.0     0.0     0.0     0.0     0.0     0.0     0.0     0.0     0.0     0.0     0.0     0.0     0.0     0.3     0.3
 2020 107     2    0.00    0.00    0.00      11    0.00     1.3   0.000   0.001   0.000   0.002     0.0     0.0     0.0    5549     0.0     619    0.00    0.62    0.00    0.72     0.0     0.0     0.0     0.0     0.0     0.0     0.0     0.0     22.     44.     52.     51.     29.     32.    190.    199.     0.0     0.0     0.1     0.1     0.0     0.0     0.2     0.2     0.0     0.0     0.0     0.0     0.0     0.0     0.0     0.0     0.0     0.0     0.0     0.0     0.0     0.0     0.3     0.3
 2020 108     3    0.00    0.00    0.00      17    0.00     1.9   0.000   0.002   0.000   0.002     0.0     0.0     0.0    5479     0.0     596    0.00    0.60    0.00    0.67     0.0     0.0     0.0     0.0     0.0     0.0     0.0     0.0     26.     52.     57.     57.     27.     30.    169.    177.     0.0     0.1     0.1     0.1     0.0     0.0     0.2     0.2     0.0     0.0     0.0     0.0     0.0     0.0     0.0     0.0     0.0     0.0     0.0     0.0     0.0     0.0     0.2     0.3
 2020 109     4    0.00    0.00    0.00      22    0.00     2.4   0.000   0.002   0.000   0.003     0.0     0.0     0.0    5230     0.0     562    0.00    0.56    0.00    0.62     0.0     0.0     0.0     0.0     0.0     0.0     0.0     0.0     28.     56.     59.     59.     26.     28.    149.    157.     0.0     0.1     0.1     0.1     0.0     0.0     0.1     0.2     0.0     0.0     0.0     0.0     0.0     0.0     0.0     0.0     0.0     0.0     0.0     0.0     0.0     0.0     0.2     0.2
 2020 110     5    0.00    0.00    0.00      27    0.00     3.0   0.000   0.003   0.000   0.003     0.0     0.0     0.0    5534     0.0     577    0.00    0.58    0.00    0.62     0.0     0.0     0.0     0.0     0.0     0.0     0.0     0.0     32.     63.     66.     66.     26.     29.    144.    151.     0.0     0.1     0.1     0.1     0.0     0.0     0.1     0.2     0.0     0.0     0.0     0.0     0.0     0.0     0.0     0.0     0.0     0.0     0.0     0.0     0.0     0.0     0.2     0.2
 2020 111     6    0.00    0.00    0.00      33    0.00     3.6   0.000   0.004   0.000   0.004     0.0     0.0     0.0    5849     0.0     598    0.00    0.60    0.00    0.62     0.0     0.0     0.0     0.0     0.0     0.0     0.0     0.0     36.     71.     73.     72.     27.     30.    142.    147.     0.0     0.1     0.1     0.1     0.0     0.0     0.1     0.1     0.0     0.0     0.0     0.0     0.0     0.0     0.0     0.0     0.0     0.0     0.0     0.0     0.0     0.0     0.2     0.2
 2020 112     7    0.00    0.00    0.00      39    0.00     4.2   0.000   0.004   0.000   0.006     0.0     0.0     0.0    6286     0.0     635    0.00    0.64    0.00    1.62     0.0     0.0     0.0     0.0     0.0     0.0     0.0     0.0     41.     81.     82.     81.     29.     32.    144.    147.     0.0     0.1     0.1     0.1     0.0     0.0     0.1     0.1     0.0     0.0     0.0     0.0     0.0     0.0     0.0     0.0     0.1     0.1     0.1     0.1     0.1     0.1     0.5     0.5
 2020 113     8    0.00    0.00    0.00      46    0.00     4.9   0.000   0.005   0.000   0.008     0.0     0.0     0.0    6411     0.0     646    0.00    0.65    0.00    2.43     0.0     0.0     0.0     0.0     0.0     0.0     0.0     0.0     43.     86.     86.     85.     29.     32.    141.    143.     0.0     0.1     0.1     0.1     0.0     0.0     0.1     0.1     0.0     0.0     0.0     0.0     0.0     0.0     0.0     0.0     0.1     0.2     0.2     0.2     0.1     0.1     0.8     0.8
 2020 114     9    0.00    0.00    0.00      53    0.00     5.6   0.000   0.006   0.000   0.010     0.0     0.0     0.0    6886     0.0     693    0.00    0.69    0.00    2.08     0.0     0.0     0.0     0.0     0.0     0.0     0.0     0.0     49.     96.     96.     94.     32.     34.    146.    146.     0.0     0.1     0.1     0.1     0.0     0.0     0.1     0.1     0.0     0.0     0.0     0.0     0.0     0.0     0.0     0.0     0.1     0.2     0.2     0.1     0.1     0.1     0.7     0.7
 2020 115    10    0.00    0.00    0.00      60    0.00     6.3   0.000   0.006   0.000   0.012     0.0     0.0     0.1    7222     0.0     729    0.00    0.73    0.00    1.76     0.0     0.0     0.0     0.0     0.0     0.0     0.0     0.0     53.    104.    103.    101.     33.     36.    150.    148.     0.1     0.1     0.1     0.1     0.0     0.0     0.1     0.1     0.0     0.0     0.0     0.0     0.0     0.0     0.0     0.0     0.1     0.1     0.1     0.1     0.1     0.1     0.5     0.5
 2020 116    11    0.00    0.00    0.00      67    0.00     7.0   0.000   0.007   0.000   0.013     0.1     0.0     0.1    6944     0.0     697    0.00    0.70    0.00    1.36     0.0     0.0     0.0     0.0     0.0     0.0     0.0     0.0     51.    100.     99.     97.     32.     34.    142.    142.     0.1     0.1     0.1     0.1     0.0     0.0     0.1     0.1     0.0     0.0     0.0     0.0     0.0     0.0     0.0     0.0     0.1     0.1     0.1     0.1     0.1     0.1     0.4     0.4
 2020 117    12    0.00    0.00    0.00      74    0.00     7.7   0.000   0.008   0.000   0.014     0.1     0.0     0.1    6702     0.0     671    0.00    0.67    0.00    1.07     0.0     0.0     0.0     0.0     0.0     0.0     0.0     0.0     49.     96.     95.     93.     30.     33.    137.    138.     0.0     0.1     0.1     0.1     0.0     0.0     0.1     0.1     0.0     0.0     0.0     0.0     0.0     0.0     0.0     0.0     0.1     0.1     0.1     0.1     0.0     0.1     0.3     0.3
 2020 118    13    0.00    0.00    0.00      81    0.00     8.4   0.000   0.008   0.000   0.015     0.1     0.0     0.1    7351     0.0     741    0.00    0.74    0.00    0.95     0.0     0.0     0.0     0.0     0.0     0.0     0.0     0.0     56.    110.    107.    105.     34.     37.    148.    146.     0.1     0.1     0.1     0.1     0.0     0.0     0.1     0.1     0.0     0.0     0.0     0.0     0.0     0.0     0.0     0.0     0.1     0.1     0.1     0.1     0.0     0.0     0.3     0.3
 2020 119    14    0.00    0.00    0.00      89    0.00     9.2   0.000   0.009   0.000   0.016     0.1     0.0     0.1    8045     0.0     818    0.00    0.82    0.00    0.85     0.0     0.0     0.0     0.0     0.0     0.0     0.0     0.0     60.    125.    122.    118.     38.     41.    161.    155.     0.1     0.1     0.1     0.1     0.0     0.0     0.2     0.2     0.0     0.0     0.0     0.0     0.0     0.0     0.0     0.0     0.1     0.1     0.1     0.1     0.0     0.0     0.3     0.2
 2020 120    15    0.00    0.00    0.00      97    0.00    10.1   0.000   0.010   0.000   0.017     0.1     0.0     0.1    8233     0.0     832    0.00    0.83    0.00    0.80     0.0     0.0     0.0     0.0     0.0     0.0     0.0     0.0     58.    128.    125.    121.     38.     41.    163.    157.     0.1     0.1     0.1     0.1     0.0     0.0     0.2     0.2     0.0     0.0     0.0     0.0     0.0     0.0     0.0     0.0     0.0     0.1     0.1     0.1     0.0     0.0     0.2     0.2
 2020 121    16    0.00    0.00    0.00     106    0.00    10.9   0.000   0.011   0.000   0.018     0.1     0.0     0.1    8754     0.0     892    0.00    0.89    0.00    0.85     0.0     0.0     0.0     0.0     0.0     0.0     0.0     0.0     62.    139.    135.    131.     41.     45.    174.    164.     0.1     0.1     0.1     0.1     0.0     0.0     0.2     0.2     0.0     0.0     0.0     0.0     0.0     0.0     0.0     0.0     0.1     0.1     0.1     0.1     0.0     0.0     0.3     0.2
 2020 122    17    0.00    0.00    0.00     116    0.00    11.9   0.000   0.012   0.000   0.019     0.1     0.0     0.1    9566     0.0     995    0.00    1.00    0.00    0.94     0.0     0.0     0.0     0.0     0.0     0.0     0.0     0.0     71.    159.    154.    148.     46.     50.    191.    177.     0.1     0.2     0.2     0.1     0.0     0.0     0.2     0.2     0.0     0.0     0.0     0.0     0.0     0.0     0.0     0.0     0.1     0.1     0.1     0.1     0.0     0.0     0.3     0.3
 2020 123    18    0.00    0.00    0.00     126    0.00    13.0   0.000   0.013   0.000   0.020     0.1     0.0     0.1   10089     0.0    1050    0.00    1.05    0.00    1.00     0.0     0.0     0.0     0.0     0.0     0.0     0.0     0.0     75.    168.    163.    157.     49.     53.    201.    184.     0.1     0.2     0.2     0.2     0.0     0.1     0.2     0.2     0.0     0.0     0.0     0.0     0.0     0.0     0.0     0.0     0.1     0.1     0.1     0.1     0.0     0.1     0.3     0.3
 2020 124    19    0.00    0.00    0.00     136    0.00    14.0   0.000   0.014   0.000   0.021     0.1     0.0     0.1    9900     0.0     994    0.00    0.99    0.00    0.95     0.0     0.0     0.0     0.0     0.0     0.0     0.0     0.0     70.    156.    152.    147.     46.     50.    193.    179.     0.1     0.2     0.2     0.1     0.0     0.0     0.2     0.2     0.0     0.0     0.0     0.0     0.0     0.0     0.0     0.0     0.1     0.1     0.1     0.1     0.0     0.0     0.3     0.3
 2020 125    20    0.00    0.00    0.00     145    0.00    15.0   0.000   0.015   0.000   0.022     0.1     0.0     0.1    9815     0.0     975    0.00    0.97    0.00    0.93     0.0     0.0     0.0     0.0     0.0     0.0     0.0     0.0     69.    153.    149.    144.     45.     49.    190.    176.     0.1     0.2     0.1     0.1     0.0     0.0     0.2     0.2     0.0     0.0     0.0     0.0     0.0     0.0     0.0     0.0     0.1     0.1     0.1     0.1     0.0     0.0     0.3     0.3
 2020 126    21    0.00    0.00    0.00     155    0.00    16.0   0.000   0.016   0.000   0.023     0.2     0.0     0.1    9951     0.0     993    0.00    0.99    0.00    0.95     0.0     0.0     0.0     0.0     0.0     0.0     0.0     0.0     70.    157.    152.    147.     46.     50.    192.    178.     0.1     0.2     0.2     0.1     0.0     0.0     0.2     0.2     0.0     0.0     0.0     0.0     0.0     0.0     0.0     0.0     0.1     0.1     0.1     0.1     0.0     0.0     0.3     0.3
 2020 127    22    0.00    0.00    0.00     165    0.00    16.9   0.000   0.017   0.000   0.023     0.2     0.0     0.2    9582     0.0     936    0.00    0.94    0.00    0.90     0.0     0.0     0.0     0.0     0.0     0.0     0.0     0.0     65.    146.    142.    138.     44.     47.    183.    172.     0.1     0.1     0.1     0.1     0.0     0.0     0.2     0.2     0.0     0.0     0.0     0.0     0.0     0.0     0.0     0.0     0.1     0.1     0.1     0.1     0.0     0.0     0.3     0.3
 2020 128    23    0.00    0.00    0.00     174    0.00    17.7   0.000   0.018   0.000   0.024     0.2     0.0     0.2    8802     0.0     838    0.00    0.84    0.00    0.81     0.0     0.0     0.0     0.0     0.0     0.0     0.0     0.0     56.    128.    125.    122.     39.     42.    166.    160.     0.1     0.1     0.1     0.1     0.0     0.0     0.2     0.2     0.0     0.0     0.0     0.0     0.0     0.0     0.0     0.0     0.0     0.1     0.1     0.1     0.0     0.0     0.2     0.2
 2020 129    24    0.00    0.00    0.00     183    0.00    18.6   0.000   0.019   0.000   0.025     0.2     0.0     0.2    8828     0.0     855    0.00    0.86    0.00    0.83     0.0     0.0     0.0     0.0     0.0     0.0     0.0     0.0     57.    132.    129.    126.     40.     43.    169.    161.     0.1     0.1     0.1     0.1     0.0     0.0     0.2     0.2     0.0     0.0     0.0     0.0     0.0     0.0     0.0     0.0     0.0     0.1     0.1     0.1     0.0     0.0     0.2     0.2
 2020 130    25    0.00    0.00    0.00     191    0.00    19.4   0.000   0.019   0.000   0.026     0.2     0.0     0.2    8211     0.0     786    0.00    0.79    0.00    0.77     0.0     0.0     0.0     0.0     0.0     0.0     0.0     0.0     51.    119.    117.    114.     36.     39.    157.    152.     0.1     0.1     0.1     0.1     0.0     0.0     0.2     0.2     0.0     0.0     0.0     0.0     0.0     0.0     0.0     0.0     0.0     0.1     0.1     0.1     0.0     0.0     0.2     0.2
 2020 131    26    0.00    0.00    0.00     199    0.00    20.1   0.000   0.020   0.000   0.027     0.2     0.0     0.2    7883     0.0     757    0.00    0.76    0.00    0.74     0.0     0.0     0.0     0.0     0.0     0.0     0.0     0.0     48.    114.    112.    110.     35.     38.    151.    148.     0.0     0.1     0.1     0.1     0.0     0.0     0.2     0.1     0.0     0.0     0.0     0.0     0.0     0.0     0.0     0.0     0.0     0.1     0.1     0.1     0.0     0.0     0.2     0.2
 2020 132    27    0.00    0.00    0.00     206    0.00    20.8   0.000   0.021   0.000   0.029     0.2     0.0     0.2    7397     0.0     710    0.00    0.71    0.00    2.62     0.0     0.0     0.0     0.0     0.0     0.0     0.0     0.0     44.    106.    104.    103.     33.     36.    143.    142.     0.0     0.1     0.1     0.1     0.0     0.0     0.1     0.1     0.0     0.0     0.0     0.0     0.0     0.0     0.0     0.0     0.1     0.2     0.2     0.2     0.1     0.1     0.8     0.8
 2020 133    28    0.00    0.00    0.00     212    0.00    21.5   0.000   0.021   0.000   0.031     0.2     0.0     0.2    6347     0.0     647    0.00    0.65    0.00    1.93     0.0     0.0     0.0     0.0     0.0     0.0     0.0     0.0     73.     88.     87.     87.     28.     31.    126.    128.     0.1     0.1     0.1     0.1     0.0     0.0     0.1     0.1     0.0     0.0     0.0     0.0     0.0     0.0     0.0     0.0     0.2     0.2     0.1     0.1     0.1     0.1     0.6     0.6
 2020 134    29    0.00    0.00    0.00     217    0.00    22.0   0.000   0.022   0.000   0.032     0.2     0.0     0.2    4873     0.0     511    0.00    0.51    0.00    1.27     0.0     0.0     0.0     0.0     0.0     0.0     0.0     0.0     49.     67.     67.     68.     22.     24.    104.    111.     0.0     0.1     0.1     0.1     0.0     0.0     0.1     0.1     0.0     0.0     0.0     0.0     0.0     0.0     0.0     0.0     0.1     0.1     0.1     0.1     0.1     0.1     0.4     0.4
 2020 135    30    0.00    0.00    0.00     222    0.00    22.5   0.000   0.023   0.000   0.033     0.2     0.0     0.2    4947     0.0     510    0.00    0.51    0.00    1.03     0.0     0.0     0.0     0.0     0.0     0.0     0.0     0.0     44.     68.     68.     68.     22.     25.    104.    111.     0.0     0.1     0.1     0.1     0.0     0.0     0.1     0.1     0.0     0.0     0.0     0.0     0.0     0.0     0.0     0.0     0.1     0.1     0.1     0.1     0.0     0.0     0.3     0.3
 2020 136    31    0.00    0.00    0.00     227    0.00    23.0   0.000   0.023   0.000   0.034     0.2     0.0     0.3    5210     0.0     525    0.00    0.53    0.00    0.86     0.0     0.0     0.0     0.0     0.0     0.0     0.0     0.0     42.     71.     71.     71.     23.     25.    108.    114.     0.0     0.1     0.1     0.1     0.0     0.0     0.1     0.1     0.0     0.0     0.0     0.0     0.0     0.0     0.0     0.0     0.1     0.1     0.1     0.1     0.0     0.0     0.3     0.3
 2020 137    32    0.00    0.00    0.00     233    0.00    23.6   0.000   0.024   0.000   0.035     0.3     0.0     0.3    5747     0.0     575    0.00    0.57    0.00    0.76     0.0     0.0     0.0     0.0     0.0     0.0     0.0     0.0     49.     79.     79.     78.     25.     28.    116.    120.     0.0     0.1     0.1     0.1     0.0     0.0     0.1     0.1     0.0     0.0     0.0     0.0     0.0     0.0     0.0     0.0     0.1     0.1     0.1     0.1     0.0     0.0     0.2     0.2
 2020 138    33    0.00    0.00    0.00     240    0.00    24.3   0.000   0.024   0.000   0.036     0.2     0.0     0.2    6929     0.0     700    0.00    0.70    0.00    0.72     0.0     0.0     0.0     0.0     0.0     0.0     0.0     0.0     69.    100.     98.     97.     31.     34.    136.    136.     0.1     0.1     0.1     0.1     0.0     0.0     0.1     0.1     0.0     0.0     0.0     0.0     0.0     0.0     0.0     0.0     0.0     0.1     0.1     0.1     0.0     0.0     0.2     0.2
 2020 139    34    0.00    0.00    0.00     248    0.00    25.2   0.000   0.025   0.000   0.037     0.3     0.0     0.3    8311     0.0     863    0.00    0.86    0.00    0.82     0.0     0.0     0.0     0.0     0.0     0.0     0.0     0.0     82.    131.    127.    123.     39.     42.    163.    156.     0.1     0.1     0.1     0.1     0.0     0.0     0.2     0.2     0.0     0.0     0.0     0.0     0.0     0.0     0.0     0.0     0.1     0.1     0.1     0.1     0.0     0.0     0.2     0.2
 2020 140    35    0.00    0.00    0.00     257    0.00    26.1   0.000   0.026   0.000   0.038     0.3     0.0     0.3    8940     0.0     934    0.00    0.93    0.00    0.89     0.0     0.0     0.0     0.0     0.0     0.0     0.0     0.0     84.    145.    140.    136.     43.     46.    177.    165.     0.1     0.1     0.1     0.1     0.0     0.0     0.2     0.2     0.0     0.0     0.0     0.0     0.0     0.0     0.0     0.0     0.1     0.1     0.1     0.1     0.0     0.0     0.3     0.2
 2020 141    36    0.00    0.00    0.00     267    0.00    27.1   0.000   0.027   0.000   0.038     0.3     0.0     0.3    9187     0.0     950    0.00    0.95    0.00    0.91     0.0     0.0     0.0     0.0     0.0     0.0     0.0     0.0     80.    147.    143.    139.     44.     47.    181.    169.     0.1     0.1     0.1     0.1     0.0     0.0     0.2     0.2     0.0     0.0     0.0     0.0     0.0     0.0     0.0     0.0     0.1     0.1     0.1     0.1     0.0     0.0     0.3     0.2
 2020 142    37    0.00    0.00    0.00     276    0.00    28.0   0.000   0.028   0.000   0.039     0.3     0.0     0.3    9178     0.0     933    0.00    0.93    0.00    0.89     0.0     0.0     0.0     0.0     0.0     0.0     0.0     0.0     76.    144.    140.    136.     43.     46.    180.    168.     0.1     0.1     0.1     0.1     0.0     0.0     0.2     0.2     0.0     0.0     0.0     0.0     0.0     0.0     0.0     0.0     0.1     0.1     0.1     0.1     0.0     0.0     0.3     0.2
 2020 143    38    0.01    0.00    0.01     285    0.00    28.8   0.000   0.029   0.000   0.040     0.2     0.0     0.2    9302     0.0     811    0.00    0.81    0.00    0.79     0.0     0.0     0.0     0.0     0.0     0.0     0.0     0.0     29.     61.    142.    138.     43.     47.    182.    170.     0.0     0.1     0.1     0.1     0.0     0.0     0.2     0.2     0.0     0.0     0.0     0.0     0.0     0.0     0.0     0.0     0.0     0.0     0.1     0.1     0.0     0.0     0.3     0.3
 2020 144    39    0.01    0.00    0.01     294    0.00    29.8   0.000   0.030   0.000   0.041     0.2     0.0     0.2    9316     0.0    1009    0.00    1.01    0.00    0.90     0.0     0.0     0.0     0.0     0.0     0.0     0.0     0.0     99.    189.    141.    137.     43.     47.    182.    170.     0.1     0.2     0.1     0.1     0.0     0.0     0.2     0.2     0.0     0.0     0.0     0.0     0.0     0.0     0.0     0.0     0.1     0.1     0.1     0.1     0.0     0.0     0.3     0.3
 2020 145    40    0.01    0.00    0.01     304    0.00    30.8   0.000   0.031   0.000   0.042     0.3     0.0     0.3    9629     0.0    1015    0.00    1.02    0.00    0.92     0.0     0.0     0.0     0.0     0.0     0.0     0.0     0.0     90.    175.    148.    144.     45.     49.    189.    175.     0.1     0.2     0.1     0.1     0.0     0.0     0.2     0.2     0.0     0.0     0.0     0.0     0.0     0.0     0.0     0.0     0.0     0.1     0.1     0.1     0.0     0.0     0.3     0.3
 2020 146    41    0.01    0.00    0.01     313    0.00    31.8   0.000   0.032   0.000   0.043     0.3     0.0     0.3    9533     0.0     972    0.00    0.97    0.00    0.89     0.0     0.0     0.0     0.0     0.0     0.0     0.0     0.0     80.    157.    144.    140.     44.     48.    186.    173.     0.1     0.2     0.1     0.1     0.0     0.0     0.2     0.2     0.0     0.0     0.0     0.0     0.0     0.0     0.0     0.0     0.0     0.1     0.1     0.1     0.0     0.0     0.3     0.3
 2020 147    42    0.01    0.00    0.01     323    0.00    32.7   0.000   0.033   0.000   0.044     0.3     0.0     0.3    9041     0.0     893    0.00    0.89    0.00    0.83     0.0     0.0     0.0     0.0     0.0     0.0     0.0     0.0     70.    139.    132.    129.     41.     44.    174.    165.     0.1     0.1     0.1     0.1     0.0     0.0     0.2     0.2     0.0     0.0     0.0     0.0     0.0     0.0     0.0     0.0     0.0     0.1     0.1     0.1     0.0     0.0     0.3     0.2
 2020 148    43    0.01    0.00    0.01     331    0.00    33.6   0.000   0.034   0.000   0.044     0.3     0.0     0.3    8928     0.0     883    0.00    0.88    0.00    0.82     0.0     0.0     0.0     0.0     0.0     0.0     0.0     0.0     69.    136.    131.    128.     40.     44.    172.    163.     0.1     0.1     0.1     0.1     0.0     0.0     0.2     0.2     0.0     0.0     0.0     0.0     0.0     0.0     0.0     0.0     0.0     0.1     0.1     0.1     0.0     0.0     0.3     0.2
 2020 149    44    0.01    0.00    0.01     340    0.00    34.4   0.000   0.034   0.000   0.045     0.3     0.0     0.3    8758     0.0     865    0.00    0.86    0.00    0.81     0.0     0.0     0.0     0.0     0.0     0.0     0.0     0.0     67.    132.    128.    125.     40.     43.    169.    161.     0.1     0.1     0.1     0.1     0.0     0.0     0.2     0.2     0.0     0.0     0.0     0.0     0.0     0.0     0.0     0.0     0.0     0.1     0.1     0.1     0.0     0.0     0.3     0.2
 2020 150    45    0.01    0.00    0.01     349    0.00    35.3   0.000   0.035   0.000   0.046     0.4     0.0     0.3    8414     0.0     826    0.00    0.83    0.00    0.78     0.0     0.0     0.0     0.0     0.0     0.0     0.0     0.0     63.    124.    122.    119.     38.     41.    163.    156.     0.1     0.1     0.1     0.1     0.0     0.0     0.2     0.2     0.0     0.0     0.0     0.0     0.0     0.0     0.0     0.0     0.0     0.1     0.1     0.1     0.0     0.0     0.2     0.2
 2020 151    46    0.01    0.00    0.01     357    0.00    36.1   0.000   0.036   0.000   0.047     0.4     0.0     0.4    8708     0.0     870    0.00    0.87    0.00    0.82     0.0     0.0     0.0     0.0     0.0     0.0     0.0     0.0     67.    133.    129.    126.     40.     43.    170.    161.     0.1     0.1     0.1     0.1     0.0     0.0     0.2     0.2     0.0     0.0     0.0     0.0     0.0     0.0     0.0     0.0     0.0     0.1     0.1     0.1     0.0     0.0     0.3     0.2
 2020 152    47    0.01    0.00    0.01     367    0.00    37.2   0.000   0.037   0.000   0.048     0.4     0.0     0.4    9911     0.0    1044    0.00    1.04    0.00    0.97     0.0     0.0     0.0     0.0     0.0     0.0     0.0     0.0     84.    165.    160.    154.     48.     52.    199.    181.     0.1     0.2     0.2     0.2     0.0     0.1     0.2     0.2     0.0     0.0     0.0     0.0     0.0     0.0     0.0     0.0     0.1     0.1     0.1     0.1     0.0     0.1     0.3     0.3
 2020 153    48    0.01    0.00    0.01     378    0.00    38.3   0.000   0.038   0.000   0.049     0.4     0.0     0.4   10692     0.0    1141    0.00    1.14    0.00    1.06     0.0     0.0     0.0     0.0     0.0     0.0     0.0     0.0     93.    182.    176.    170.     53.     57.    216.    194.     0.1     0.2     0.2     0.2     0.1     0.1     0.2     0.2     0.0     0.0     0.0     0.0     0.0     0.0     0.0     0.0     0.1     0.1     0.1     0.1     0.1     0.1     0.3     0.3
 2020 154    49    0.01    0.00    0.01     390    0.00    39.6   0.000   0.040   0.000   0.050     0.4     0.0     0.4   11612     0.0    1257    0.00    1.26    0.00    1.16     0.0     0.0     0.0     0.0     0.0     0.0     0.0     0.0    103.    202.    196.    188.     59.     63.    237.    209.     0.1     0.2     0.2     0.2     0.1     0.1     0.2     0.2     0.0     0.0     0.0     0.0     0.0     0.0     0.0     0.0     0.1     0.1     0.1     0.1     0.1     0.1     0.3     0.3
 2020 155    50    0.01    0.00    0.01     402    0.00    40.9   0.000   0.041   0.000   0.051     0.5     0.0     0.5   12357     0.0    1326    0.00    1.33    0.00    1.23     0.0     0.0     0.0     0.0     0.0     0.0     0.0     0.0    109.    213.    206.    199.     62.     67.    250.    220.     0.1     0.2     0.2     0.2     0.1     0.1     0.3     0.2     0.0     0.0     0.0     0.0     0.0     0.0     0.0     0.0     0.1     0.1     0.1     0.1     0.1     0.1     0.4     0.3
 2020 156    51    0.01    0.00    0.01     415    0.00    42.2   0.000   0.042   0.000   0.053     0.5     0.0     0.5   12742     0.0    1322    0.00    1.32    0.00    1.23     0.0     0.0     0.0     0.0     0.0     0.0     0.0     0.0    102.    211.    205.    198.     62.     67.    253.    223.     0.1     0.2     0.2     0.2     0.1     0.1     0.3     0.2     0.0     0.0     0.0     0.0     0.0     0.0     0.0     0.0     0.1     0.1     0.1     0.1     0.1     0.1     0.4     0.3
 2020 157    52    0.01    0.00    0.01     427    0.00    43.5   0.000   0.044   0.000   0.054     0.5     0.0     0.5   12795     0.0    1290    0.00    1.29    0.00    1.21     0.0     0.0     0.0     0.0     0.0     0.0     0.0     0.0    100.    205.    199.    193.     60.     65.    247.    221.     0.1     0.2     0.2     0.2     0.1     0.1     0.2     0.2     0.0     0.0     0.0     0.0     0.0     0.0     0.0     0.0     0.1     0.1     0.1     0.1     0.1     0.1     0.4     0.3
 2020 158    53    0.01    0.00    0.01     441    0.00    44.8   0.000   0.045   0.000   0.055     0.5     0.0     0.5   13082     0.0    1325    0.00    1.32    0.00    1.24     0.0     0.0     0.0     0.0     0.0     0.0     0.0     0.0    102.    208.    207.    200.     63.     67.    254.    225.     0.1     0.2     0.2     0.2     0.1     0.1     0.3     0.2     0.0     0.0     0.0     0.0     0.0     0.0     0.0     0.0     0.1     0.1     0.1     0.1     0.1     0.1     0.4     0.3
 2020 159    54    0.01    0.00    0.01     454    0.00    46.2   0.000   0.046   0.000   0.056     0.5     0.0     0.5   13231     0.0    1331    0.00    1.33    0.00    1.25     0.0     0.0     0.0     0.0     0.0     0.0     0.0     0.0    102.    209.    208.    201.     63.     67.    255.    226.     0.1     0.2     0.2     0.2     0.1     0.1     0.3     0.2     0.0     0.0     0.0     0.0     0.0     0.0     0.0     0.0     0.1     0.1     0.1     0.1     0.1     0.1     0.4     0.3
 2020 160    55    0.01    0.00    0.01     467    0.00    47.5   0.000   0.047   0.000   0.057     0.6     0.0     0.5   13178     0.0    1310    0.00    1.31    0.00    1.23     0.0     0.0     0.0     0.0     0.0     0.0     0.0     0.0     98.    212.    203.    196.     62.     66.    251.    223.     0.1     0.2     0.2     0.2     0.1     0.1     0.3     0.2     0.0     0.0     0.0     0.0     0.0     0.0     0.0     0.0     0.1     0.1     0.1     0.1     0.1     0.1     0.4     0.3
 2020 161    56    0.01    0.00    0.01     480    0.00    48.8   0.000   0.049   0.000   0.062     0.6     0.0     0.6   13357     0.0    1341    0.00    1.34    0.00    4.71     0.0     0.0     0.0     0.0     0.0     0.0     0.0     0.0    102.    211.    207.    204.     64.     68.    257.    227.     0.1     0.2     0.2     0.2     0.1     0.1     0.3     0.2     0.0     0.0     0.0     0.0     0.0     0.0     0.0     0.0     0.3     0.4     0.4     0.4     0.2     0.3     1.4     1.3
 2020 162    57    0.01    0.00    0.01     493    0.00    50.1   0.000   0.050   0.000   0.066     0.4     0.0     0.4   12506     0.0    1233    0.00    1.23    0.00    3.39     0.0     0.0     0.0     0.0     0.0     0.0     0.0     0.0    129.    197.    182.    174.     55.     59.    228.    208.     0.1     0.2     0.2     0.2     0.1     0.1     0.2     0.2     0.0     0.0     0.0     0.0     0.0     0.0     0.0     0.0     0.2     0.3     0.3     0.3     0.2     0.2     1.0     0.9
 2020 163    58    0.01    0.00    0.01     504    0.00    51.2   0.000   0.051   0.000   0.068     0.4     0.0     0.5   11677     0.0    1099    0.00    1.10    0.00    2.51     0.0     0.0     0.0     0.0     0.0     0.0     0.0     0.0     87.    171.    166.    161.     51.     55.    212.    196.     0.1     0.2     0.2     0.2     0.1     0.1     0.2     0.2     0.0     0.0     0.0     0.0     0.0     0.0     0.0     0.0     0.1     0.2     0.2     0.2     0.1     0.1     0.8     0.7
 2020 164    59    0.01    0.00    0.01     515    0.00    52.3   0.000   0.052   0.000   0.070     0.5     0.0     0.5   10143     0.0    1102    0.00    1.10    0.00    2.04     0.0     0.0     0.0     0.0     0.0     0.0     0.0     0.0     88.    172.    167.    162.     51.     55.    212.    194.     0.1     0.2     0.2     0.2     0.1     0.1     0.2     0.2     0.0     0.0     0.0     0.0     0.0     0.0     0.0     0.0     0.1     0.2     0.2     0.2     0.1     0.1     0.6     0.6
 2020 165    60    0.01    0.00    0.01     525    0.00    53.3   0.000   0.053   0.000   0.072     0.5     0.0     0.6    9959     0.0    1027    0.00    1.03    0.00    1.61     0.0     0.0     0.0     0.0     0.0     0.0     0.0     0.0     78.    174.     92.    165.     52.     56.    215.    196.     0.1     0.2     0.1     0.2     0.1     0.1     0.2     0.2     0.0     0.0     0.0     0.0     0.0     0.0     0.0     0.0     0.1     0.1     0.1     0.1     0.1     0.1     0.5     0.5
 2020 166    61    0.01    0.00    0.01     534    0.00    54.3   0.000   0.054   0.000   0.073     0.6     0.0     0.6    9733     0.0     992    0.00    0.99    0.00    1.28     0.0     0.0     0.0     0.0     0.0     0.0     0.0     0.0     68.    170.     71.    165.     52.     56.    215.    196.     0.1     0.2     0.1     0.2     0.1     0.1     0.2     0.2     0.0     0.0     0.0     0.0     0.0     0.0     0.0     0.0     0.1     0.1     0.1     0.1     0.1     0.1     0.4     0.4
 2020 167    62    0.02    0.00    0.02     545    0.00    55.4   0.000   0.055   0.000   0.074     0.6     0.0     0.6   10301     0.0    1112    0.00    1.11    0.00    1.17     0.0     0.0     0.0     0.0     0.0     0.0     0.0     0.0     71.    192.     76.    192.     60.     64.    242.    214.     0.1     0.2     0.1     0.2     0.1     0.1     0.2     0.2     0.0     0.0     0.0     0.0     0.0     0.0     0.0     0.0     0.1     0.1     0.0     0.1     0.1     0.1     0.4     0.3
 2020 168    63    0.02    0.00    0.02     555    0.00    56.5   0.000   0.057   0.000   0.075     0.6     0.0     0.7   10632     0.0    1150    0.00    1.15    0.00    1.14     0.0     0.0     0.0     0.0     0.0     0.0     0.0     0.0     63.    189.     78.    204.     64.     68.    257.    226.     0.1     0.2     0.1     0.2     0.1     0.1     0.3     0.2     0.0     0.0     0.0     0.0     0.0     0.0     0.0     0.0     0.0     0.1     0.0     0.1     0.1     0.1     0.4     0.3
 2020 169    64    0.02    0.00    0.02     566    0.00    57.6   0.000   0.058   0.000   0.076     0.7     0.0     0.7   10480     0.0    1090    0.00    1.09    0.00    1.10     0.0     0.0     0.0     0.0     0.0     0.0     0.0     0.0     53.    160.     74.    197.     62.     66.    253.    224.     0.1     0.2     0.1     0.2     0.1     0.1     0.3     0.2     0.0     0.0     0.0     0.0     0.0     0.0     0.0     0.0     0.0     0.1     0.0     0.1     0.1     0.1     0.4     0.3
 2020 170    65    0.02    0.00    0.02     579    0.00    58.4   0.000   0.058   0.000   0.077     0.4     0.0     0.4   13058     0.0     746    0.00    0.75    0.00    0.88     0.0     0.0     0.0     0.0     0.0     0.0     0.0     0.0     20.     58.     17.     48.     62.     66.    251.    224.     0.0     0.1     0.0     0.0     0.1     0.1     0.3     0.2     0.0     0.0     0.0     0.0     0.0     0.0     0.0     0.0     0.0     0.0     0.0     0.0     0.1     0.1     0.4     0.3
 2020 171    66    0.02    0.00    0.02     592    0.00    59.5   0.000   0.060   0.000   0.078     0.5     0.0     0.6   12744     0.0    1177    0.00    1.18    0.00    1.09     0.0     0.0     0.0     0.0     0.0     0.0     0.0     0.0    131.    274.     82.    104.     58.     63.    243.    222.     0.1     0.3     0.1     0.1     0.1     0.1     0.2     0.2     0.0     0.0     0.0     0.0     0.0     0.0     0.0     0.0     0.1     0.1     0.0     0.0     0.1     0.1     0.4     0.3
 2020 172    67    0.02    0.00    0.02     603    0.00    61.0   0.000   0.061   0.000   0.080     0.5     0.0     0.6   11879     0.0    1418    0.00    1.42    0.00    1.14     0.0     0.0     0.0     0.0     0.0     0.0     0.0     0.0     88.    176.    291.    333.     52.     56.    219.    203.     0.1     0.2     0.3     0.3     0.1     0.1     0.2     0.2     0.0     0.0     0.0     0.0     0.0     0.0     0.0     0.0     0.0     0.1     0.1     0.1     0.0     0.1     0.3     0.3
 2020 173    68    0.02    0.00    0.02     615    0.00    62.2   0.000   0.062   0.000   0.081     0.6     0.0     0.6   11556     0.0    1184    0.00    1.18    0.00    1.03     0.0     0.0     0.0     0.0     0.0     0.0     0.0     0.0     88.    173.    194.    205.     52.     56.    217.    200.     0.1     0.2     0.2     0.2     0.1     0.1     0.2     0.2     0.0     0.0     0.0     0.0     0.0     0.0     0.0     0.0     0.0     0.1     0.1     0.1     0.0     0.1     0.3     0.3
 2020 174    69    0.02    0.00    0.02     626    0.00    63.3   0.000   0.063   0.000   0.082     0.6     0.0     0.6   11410     0.0    1142    0.00    1.14    0.00    1.02     0.0     0.0     0.0     0.0     0.0     0.0     0.0     0.0     88.    174.    176.    177.     52.     56.    218.    200.     0.1     0.2     0.2     0.2     0.1     0.1     0.2     0.2     0.0     0.0     0.0     0.0     0.0     0.0     0.0     0.0     0.0     0.1     0.1     0.1     0.0     0.1     0.3     0.3
 2020 175    70    0.02    0.00    0.02     637    0.00    64.4   0.000   0.064   0.000   0.083     0.6     0.0     0.7   10918     0.0    1076    0.00    1.08    0.00    0.97     0.0     0.0     0.0     0.0     0.0     0.0     0.0     0.0     82.    164.    163.    161.     50.     54.    209.    194.     0.1     0.2     0.2     0.2     0.0     0.1     0.2     0.2     0.0     0.0     0.0     0.0     0.0     0.0     0.0     0.0     0.0     0.1     0.1     0.1     0.0     0.1     0.3     0.3
 2020 176    71    0.02    0.00    0.02     648    0.00    65.4   0.000   0.065   0.000   0.084     0.7     0.0     0.7   10681     0.0    1073    0.00    1.07    0.00    0.97     0.0     0.0     0.0     0.0     0.0     0.0     0.0     0.0     75.    166.    163.    160.     50.     54.    210.    194.     0.1     0.2     0.2     0.2     0.1     0.1     0.2     0.2     0.0     0.0     0.0     0.0     0.0     0.0     0.0     0.0     0.0     0.1     0.1     0.1     0.0     0.1     0.3     0.3
 2020 177    72    0.02    0.00    0.02     659    0.00    66.7   0.000   0.067   0.000   0.085     0.7     0.0     0.7   11332     0.0    1217    0.00    1.22    0.00    1.10     0.0     0.0     0.0     0.0     0.0     0.0     0.0     0.0     80.    190.    191.    185.     58.     62.    237.    213.     0.1     0.2     0.2     0.2     0.1     0.1     0.2     0.2     0.0     0.0     0.0     0.0     0.0     0.0     0.0     0.0     0.1     0.1     0.1     0.1     0.1     0.1     0.4     0.3
 2020 178    73    0.02    0.00    0.02     671    0.00    67.9   0.000   0.068   0.000   0.086     0.7     0.0     0.8   11539     0.0    1220    0.00    1.22    0.00    1.12     0.0     0.0     0.0     0.0     0.0     0.0     0.0     0.0     69.    181.    195.    189.     59.     64.    244.    219.     0.1     0.2     0.2     0.2     0.1     0.1     0.2     0.2     0.0     0.0     0.0     0.0     0.0     0.0     0.0     0.0     0.0     0.1     0.1     0.1     0.1     0.1     0.4     0.3
 2020 179    74    0.02    0.00    0.02     682    0.00    69.1   0.000   0.069   0.000   0.087     0.8     0.0     0.8   11541     0.0    1211    0.00    1.21    0.00    1.13     0.0     0.0     0.0     0.0     0.0     0.0     0.0     0.0     61.    166.    197.    191.     60.     65.    248.    223.     0.1     0.2     0.2     0.2     0.1     0.1     0.2     0.2     0.0     0.0     0.0     0.0     0.0     0.0     0.0     0.0     0.0     0.1     0.1     0.1     0.1     0.1     0.4     0.3
 2020 180    75    0.02    0.00    0.02     694    0.00    70.3   0.000   0.070   0.000   0.088     0.8     0.0     0.8   11494     0.0    1227    0.00    1.23    0.00    1.15     0.0     0.0     0.0     0.0     0.0     0.0     0.0     0.0     56.    159.    199.    197.     62.     67.    256.    229.     0.1     0.2     0.2     0.2     0.1     0.1     0.3     0.2     0.0     0.0     0.0     0.0     0.0     0.0     0.0     0.0     0.0     0.1     0.1     0.1     0.1     0.1     0.4     0.3
 2020 181    76    0.02    0.00    0.03     705    0.00    71.5   0.000   0.072   0.000   0.089     0.8     0.0     0.9   11469     0.0    1224    0.00    1.22    0.00    1.18     0.0     0.0     0.0     0.0     0.0     0.0     0.0     0.0     49.    143.    196.    195.     66.     70.    267.    237.     0.0     0.1     0.2     0.2     0.1     0.1     0.3     0.2     0.0     0.0     0.0     0.0     0.0     0.0     0.0     0.0     0.0     0.1     0.1     0.1     0.1     0.1     0.4     0.4
 2020 182    77    0.03    0.00    0.03     716    0.00    72.7   0.000   0.073   0.000   0.090     0.8     0.0     0.9   11128     0.0    1166    0.00    1.17    0.00    1.15     0.0     0.0     0.0     0.0     0.0     0.0     0.0     0.0     45.    133.    178.    180.     66.     55.    270.    240.     0.0     0.1     0.2     0.2     0.1     0.1     0.3     0.2     0.0     0.0     0.0     0.0     0.0     0.0     0.0     0.0     0.0     0.1     0.1     0.1     0.1     0.1     0.4     0.4
 2020 183    78    0.03    0.00    0.03     727    0.00    73.8   0.000   0.074   0.000   0.091     0.8     0.0     0.9   10666     0.0    1102    0.00    1.10    0.00    1.11     0.0     0.0     0.0     0.0     0.0     0.0     0.0     0.0     40.    118.    168.    157.     65.     51.    266.    237.     0.0     0.1     0.2     0.2     0.1     0.1     0.3     0.2     0.0     0.0     0.0     0.0     0.0     0.0     0.0     0.0     0.0     0.1     0.1     0.1     0.1     0.1     0.4     0.4
 2020 184    79    0.03    0.00    0.03     737    0.00    74.8   0.000   0.075   0.000   0.093     0.8     0.0     0.9   10117     0.0    1026    0.00    1.03    0.00    1.06     0.0     0.0     0.0     0.0     0.0     0.0     0.0     0.0     35.    108.    155.    133.     62.     47.    256.    230.     0.0     0.1     0.2     0.1     0.1     0.0     0.3     0.2     0.0     0.0     0.0     0.0     0.0     0.0     0.0     0.0     0.0     0.1     0.1     0.1     0.1     0.0     0.4     0.3
 2020 185    80    0.03    0.00    0.03     747    0.00    75.8   0.000   0.076   0.000   0.094     0.8     0.0     0.9    9731     0.0     989    0.00    0.99    0.00    1.04     0.0     0.0     0.0     0.0     0.0     0.0     0.0     0.0     30.    103.    140.    125.     60.     44.    257.    230.     0.0     0.1     0.1     0.1     0.1     0.0     0.3     0.2     0.0     0.0     0.0     0.0     0.0     0.0     0.0     0.0     0.0     0.1     0.1     0.1     0.1     0.0     0.4     0.3
 2020 186    81    0.03    0.00    0.03     761    0.00    76.5   0.000   0.077   0.000   0.094     0.4     0.0     0.5   13559     0.0     677    0.00    0.68    0.00    0.83     0.0     0.0     0.0     0.0     0.0     0.0     0.0     0.0     13.     31.     34.     29.     53.     38.    252.    225.     0.0     0.0     0.0     0.0     0.1     0.0     0.3     0.2     0.0     0.0     0.0     0.0     0.0     0.0     0.0     0.0     0.0     0.0     0.0     0.0     0.0     0.0     0.4     0.3
 2020 187    82    0.03    0.00    0.03     774    0.00    78.0   0.000   0.078   0.000   0.096     0.6     0.0     0.6   13575     0.0    1504    0.00    1.50    0.00    1.24     0.0     0.0     0.0     0.0     0.0     0.0     0.0     0.0    125.    271.    281.    257.     58.     36.    249.    227.     0.1     0.3     0.3     0.3     0.1     0.0     0.2     0.2     0.0     0.0     0.0     0.0     0.0     0.0     0.0     0.0     0.1     0.1     0.1     0.1     0.1     0.0     0.4     0.3
 2020 188    83    0.03    0.00    0.03     787    0.00    79.2   0.000   0.079   0.000   0.097     0.6     0.0     0.7   12926     0.0    1189    0.00    1.19    0.00    1.06     0.0     0.0     0.0     0.0     0.0     0.0     0.0     0.0     93.    186.    186.    183.     55.     40.    232.    215.     0.1     0.2     0.2     0.2     0.1     0.0     0.2     0.2     0.0     0.0     0.0     0.0     0.0     0.0     0.0     0.0     0.0     0.1     0.1     0.1     0.1     0.0     0.3     0.3
 2020 189    84    0.03    0.00    0.03     800    0.00    80.4   0.000   0.080   0.000   0.098     0.6     0.0     0.7   12881     0.0    1205    0.00    1.21    0.00    1.08     0.0     0.0     0.0     0.0     0.0     0.0     0.0     0.0     96.    191.    187.    182.     56.     41.    236.    216.     0.1     0.2     0.2     0.2     0.1     0.0     0.2     0.2     0.0     0.0     0.0     0.0     0.0     0.0     0.0     0.0     0.0     0.1     0.1     0.1     0.1     0.0     0.4     0.3
 2020 190    85    0.03    0.00    0.03     813    0.00    81.6   0.000   0.082   0.000   0.099     0.7     0.0     0.7   12678     0.0    1188    0.00    1.19    0.00    1.07     0.0     0.0     0.0     0.0     0.0     0.0     0.0     0.0     95.    188.    184.    179.     56.     38.    234.    215.     0.1     0.2     0.2     0.2     0.1     0.0     0.2     0.2     0.0     0.0     0.0     0.0     0.0     0.0     0.0     0.0     0.0     0.1     0.1     0.1     0.1     0.0     0.3     0.3
 2020 191    86    0.03    0.00    0.03     825    0.00    82.8   0.000   0.083   0.000   0.100     0.7     0.0     0.7   12772     0.0    1243    0.00    1.24    0.00    1.12     0.0     0.0     0.0     0.0     0.0     0.0     0.0     0.0     99.    199.    194.    189.     59.     38.    243.    222.     0.1     0.2     0.2     0.2     0.1     0.0     0.2     0.2     0.0     0.0     0.0     0.0     0.0     0.0     0.0     0.0     0.1     0.1     0.1     0.1     0.1     0.0     0.4     0.3
 2020 192    87    0.03    0.00    0.03     838    0.00    84.0   0.000   0.084   0.000   0.101     0.7     0.0     0.8   12667     0.0    1205    0.00    1.21    0.00    1.09     0.0     0.0     0.0     0.0     0.0     0.0     0.0     0.0     84.    195.    190.    185.     58.     34.    240.    220.     0.1     0.2     0.2     0.2     0.1     0.0     0.2     0.2     0.0     0.0     0.0     0.0     0.0     0.0     0.0     0.0     0.0     0.1     0.1     0.1     0.1     0.0     0.4     0.3
 2020 193    88    0.03    0.00    0.03     851    0.00    85.3   0.000   0.085   0.000   0.102     0.8     0.0     0.8   12533     0.0    1217    0.00    1.22    0.00    1.11     0.0     0.0     0.0     0.0     0.0     0.0     0.0     0.0     76.    200.    195.    189.     58.     33.    243.    223.     0.1     0.2     0.2     0.2     0.1     0.0     0.2     0.2     0.0     0.0     0.0     0.0     0.0     0.0     0.0     0.0     0.0     0.1     0.1     0.1     0.1     0.0     0.4     0.3
 2020 194    89    0.03    0.00    0.04     863    0.00    86.5   0.000   0.086   0.000   0.103     0.8     0.0     0.9   12233     0.0    1209    0.00    1.21    0.00    1.11     0.0     0.0     0.0     0.0     0.0     0.0     0.0     0.0     69.    197.    193.    188.     57.     32.    245.    227.     0.1     0.2     0.2     0.2     0.1     0.0     0.2     0.2     0.0     0.0     0.0     0.0     0.0     0.0     0.0     0.0     0.0     0.1     0.1     0.1     0.1     0.0     0.4     0.3
 2020 195    90    0.03    0.00    0.04     875    0.00    87.6   0.000   0.088   0.000   0.104     0.9     0.0     0.9   11845     0.0    1143    0.00    1.14    0.00    1.07     0.0     0.0     0.0     0.0     0.0     0.0     0.0     0.0     60.    182.    179.    174.     53.     31.    240.    224.     0.1     0.2     0.2     0.2     0.1     0.0     0.2     0.2     0.0     0.0     0.0     0.0     0.0     0.0     0.0     0.0     0.0     0.1     0.1     0.1     0.1     0.0     0.4     0.3
 2020 196    91    0.04    0.00    0.04     886    0.00    88.6   0.000   0.089   0.000   0.108     0.9     0.0     1.0   11001     0.0    1037    0.00    1.04    0.00    3.74     0.0     0.0     0.0     0.0     0.0     0.0     0.0     0.0     51.    159.    158.    154.     47.     28.    225.    215.     0.1     0.2     0.2     0.2     0.0     0.0     0.2     0.2     0.0     0.0     0.0     0.0     0.0     0.0     0.0     0.0     0.1     0.3     0.3     0.3     0.2     0.1     1.3     1.2
 2020 197    92    0.04    0.00    0.04     896    0.00    89.6   0.000   0.090   0.000   0.111     0.8     0.0     0.9   10732     0.0     995    0.00    1.00    0.00    2.95     0.0     0.0     0.0     0.0     0.0     0.0     0.0     0.0     46.    150.    148.    145.     44.     27.    221.    213.     0.0     0.1     0.1     0.1     0.0     0.0     0.2     0.2     0.0     0.0     0.0     0.0     0.0     0.0     0.0     0.0     0.1     0.3     0.2     0.2     0.1     0.1     1.0     1.0
 2020 198    93    0.04    0.00    0.04     907    0.00    90.6   0.000   0.091   0.000   0.113     0.8     0.0     0.9   10263     0.0     956    0.00    0.96    0.00    2.34     0.0     0.0     0.0     0.0     0.0     0.0     0.0     0.0     55.    138.    136.    134.     41.     26.    215.    210.     0.1     0.1     0.1     0.1     0.0     0.0     0.2     0.2     0.0     0.0     0.0     0.0     0.0     0.0     0.0     0.0     0.1     0.2     0.2     0.2     0.1     0.1     0.8     0.8
 2020 199    94    0.04    0.00    0.04     916    0.00    91.5   0.000   0.091   0.000   0.115     0.9     0.0     1.0    9677     0.0     908    0.00    0.91    0.00    1.83     0.0     0.0     0.0     0.0     0.0     0.0     0.0     0.0     52.    127.    126.    124.     38.     25.    209.    206.     0.1     0.1     0.1     0.1     0.0     0.0     0.2     0.2     0.0     0.0     0.0     0.0     0.0     0.0     0.0     0.0     0.1     0.1     0.1     0.1     0.1     0.1     0.6     0.6
 2020 200    95    0.04    0.00    0.04     930    0.00    92.1   0.000   0.092   0.000   0.116     0.4     0.0     0.5   13230     0.0     590    0.00    0.59    0.00    1.13     0.0     0.0     0.0     0.0     0.0     0.0     0.0     0.0     17.     43.     33.     33.     18.     25.    211.    209.     0.0     0.0     0.0     0.0     0.0     0.0     0.2     0.2     0.0     0.0     0.0     0.0     0.0     0.0     0.0     0.0     0.0     0.0     0.0     0.0     0.0     0.0     0.5     0.5
 2020 201    96    0.04    0.00    0.04     943    0.00    92.8   0.000   0.093   0.000   0.117     0.3     0.0     0.4   13690     0.0     758    0.00    0.76    0.00    1.03     0.0     0.0     0.0     0.0     0.0     0.0     0.0     0.0     35.     77.     65.     62.     34.     45.    220.    221.     0.0     0.1     0.1     0.1     0.0     0.0     0.2     0.2     0.0     0.0     0.0     0.0     0.0     0.0     0.0     0.0     0.0     0.0     0.0     0.0     0.0     0.1     0.4     0.4
 2020 202    97    0.04    0.00    0.04     957    0.00    93.8   0.000   0.094   0.000   0.118     0.7     0.0     0.7   13774     0.0     928    0.00    0.93    0.00    0.95     0.0     0.0     0.0     0.0     0.0     0.0     0.0     0.0     65.    131.    106.     98.     47.     52.    212.    217.     0.1     0.1     0.1     0.1     0.0     0.1     0.2     0.2     0.0     0.0     0.0     0.0     0.0     0.0     0.0     0.0     0.0     0.1     0.0     0.0     0.0     0.1     0.3     0.3
 2020 203    98    0.04    0.00    0.04     971    0.00    95.7   0.000   0.096   0.000   0.120     0.7     0.0     0.8   14080     0.0    1899    0.00    1.90    0.00    1.41     0.0     0.0     0.0     0.0     0.0     0.0     0.0     0.0    183.    372.    388.    376.     85.     56.    216.    221.     0.2     0.4     0.4     0.4     0.1     0.1     0.2     0.2     0.0     0.0     0.0     0.0     0.0     0.0     0.0     0.0     0.1     0.2     0.2     0.2     0.1     0.1     0.3     0.3
 2020 204    99    0.04    0.00    0.04     985    0.00    97.0   0.000   0.097   0.000   0.121     0.8     0.0     0.8   13855     0.0    1308    0.00    1.31    0.00    1.11     0.0     0.0     0.0     0.0     0.0     0.0     0.0     0.0    105.    215.    220.    221.     62.     56.    212.    217.     0.1     0.2     0.2     0.2     0.1     0.1     0.2     0.2     0.0     0.0     0.0     0.0     0.0     0.0     0.0     0.0     0.1     0.1     0.1     0.1     0.1     0.1     0.3     0.3
 2020 205   100    0.04    0.00    0.04     999    0.00    98.2   0.000   0.098   0.000   0.122     0.8     0.0     0.8   13627     0.0    1180    0.00    1.18    0.00    1.04     0.0     0.0     0.0     0.0     0.0     0.0     0.0     0.0     92.    185.    184.    183.     56.     56.    208.    215.     0.1     0.2     0.2     0.2     0.1     0.1     0.2     0.2     0.0     0.0     0.0     0.0     0.0     0.0     0.0     0.0     0.0     0.1     0.1     0.1     0.1     0.1     0.3     0.3
 2020 206   101    0.04    0.00    0.04    1012    0.00    99.3   0.000   0.099   0.000   0.123     0.8     0.0     0.9   13370     0.0    1140    0.00    1.14    0.00    1.02     0.0     0.0     0.0     0.0     0.0     0.0     0.0     0.0     89.    178.    175.    172.     54.     56.    204.    212.     0.1     0.2     0.2     0.2     0.1     0.1     0.2     0.2     0.0     0.0     0.0     0.0     0.0     0.0     0.0     0.0     0.0     0.1     0.1     0.1     0.0     0.1     0.3     0.3
 2020 207   102    0.04    0.00    0.05    1026    0.00   100.5   0.000   0.101   0.000   0.124     0.8     0.0     0.9   13648     0.0    1204    0.00    1.20    0.00    1.07     0.0     0.0     0.0     0.0     0.0     0.0     0.0     0.0     93.    191.    186.    183.     57.     60.    213.    221.     0.1     0.2     0.2     0.2     0.1     0.1     0.2     0.2     0.0     0.0     0.0     0.0     0.0     0.0     0.0     0.0     0.1     0.1     0.1     0.1     0.1     0.1     0.3     0.3
 2020 208   103    0.04    0.00    0.05    1039    0.00   101.7   0.000   0.102   0.000   0.125     0.9     0.0     1.0   13853     0.0    1232    0.00    1.23    0.00    1.10     0.0     0.0     0.0     0.0     0.0     0.0     0.0     0.0     87.    198.    193.    189.     59.     63.    216.    227.     0.1     0.2     0.2     0.2     0.1     0.1     0.2     0.2     0.0     0.0     0.0     0.0     0.0     0.0     0.0     0.0     0.1     0.1     0.1     0.1     0.1     0.1     0.3     0.3
 2020 209   104    0.04    0.00    0.05    1054    0.00   102.5   0.000   0.102   0.000   0.126     0.6     0.0     0.6   14833     0.0     758    0.00    0.76    0.00    0.83     0.0     0.0     0.0     0.0     0.0     0.0     0.0     0.0     30.     65.     53.     51.     41.     65.    220.    233.     0.0     0.1     0.1     0.1     0.0     0.1     0.2     0.2     0.0     0.0     0.0     0.0     0.0     0.0     0.0     0.0     0.0     0.0     0.0     0.0     0.0     0.1     0.3     0.3
 2020 210   105    0.05    0.00    0.05    1069    0.00   103.4   0.000   0.103   0.000   0.127     0.5     0.0     0.5   14436     0.0     863    0.00    0.86    0.00    0.84     0.0     0.0     0.0     0.0     0.0     0.0     0.0     0.0     45.    113.     91.     85.     45.     60.    202.    223.     0.0     0.1     0.1     0.1     0.0     0.1     0.2     0.2     0.0     0.0     0.0     0.0     0.0     0.0     0.0     0.0     0.0     0.0     0.0     0.0     0.0     0.1     0.3     0.3
 2020 211   106    0.05    0.00    0.05    1083    0.00   104.3   0.000   0.104   0.000   0.128     0.7     0.0     0.8   13941     0.0     937    0.00    0.94    0.00    0.89     0.0     0.0     0.0     0.0     0.0     0.0     0.0     0.0     64.    138.    118.    114.     50.     55.    186.    211.     0.1     0.1     0.1     0.1     0.0     0.1     0.2     0.2     0.0     0.0     0.0     0.0     0.0     0.0     0.0     0.0     0.0     0.1     0.1     0.0     0.0     0.1     0.3     0.3
 2020 212   107    0.05    0.00    0.05    1096    0.00   105.2   0.000   0.105   0.000   0.128     0.4     0.0     0.4   13600     0.0     922    0.00    0.92    0.00    0.85     0.0     0.0     0.0     0.0     0.0     0.0     0.0     0.0     51.    123.    124.    125.     50.     55.    185.    208.     0.1     0.1     0.1     0.1     0.1     0.1     0.2     0.2     0.0     0.0     0.0     0.0     0.0     0.0     0.0     0.0     0.0     0.0     0.1     0.1     0.0     0.1     0.3     0.3
 2020 213   108    0.05    0.00    0.05    1109    0.00   106.6   0.000   0.107   0.000   0.130     0.7     0.0     0.8   12822     0.4    1388    0.00    1.39    0.43    1.07     0.2     0.2     0.0     0.0     0.0     0.0     0.0     0.0     69.    138.    352.    344.     67.     51.    171.    197.     0.1     0.1     0.4     0.3     0.1     0.1     0.2     0.2     0.2     0.2     0.0     0.0     0.0     0.0     0.0     0.0     0.0     0.1     0.2     0.2     0.1     0.0     0.3     0.3
 2020 214   109    0.05    0.00    0.05    1121    0.00   108.0   0.000   0.108   0.000   0.131     0.9     0.0     0.9   12227     0.0    1363    0.00    1.36    0.00    1.06     0.0     0.0     0.0     0.0     0.0     0.0     0.0     0.0    163.    319.    213.    212.     53.     49.    164.    191.     0.2     0.3     0.2     0.2     0.1     0.0     0.2     0.2     0.0     0.0     0.0     0.0     0.0     0.0     0.0     0.0     0.1     0.2     0.1     0.1     0.0     0.0     0.2     0.3
 2020 215   110    0.05    0.00    0.05    1134    0.00   109.2   0.000   0.109   0.000   0.132     0.9     0.0     1.0   12580     0.0    1203    0.00    1.20    0.00    1.01     0.0     0.0     0.0     0.0     0.0     0.0     0.0     0.0    119.    235.    187.    186.     52.     53.    172.    200.     0.1     0.2     0.2     0.2     0.1     0.1     0.2     0.2     0.0     0.0     0.0     0.0     0.0     0.0     0.0     0.0     0.1     0.1     0.1     0.1     0.0     0.0     0.3     0.3
 2020 216   111    0.05    0.00    0.05    1147    0.00   110.3   0.000   0.110   0.000   0.133     0.9     0.0     1.0   12749     0.0    1118    0.00    1.12    0.00    0.97     0.0     0.0     0.0     0.0     0.0     0.0     0.0     0.0     97.    193.    173.    172.     52.     54.    174.    204.     0.1     0.2     0.2     0.2     0.1     0.1     0.2     0.2     0.0     0.0     0.0     0.0     0.0     0.0     0.0     0.0     0.1     0.1     0.1     0.1     0.0     0.1     0.3     0.3
 2020 217   112    0.05    0.00    0.05    1159    0.00   111.1   0.000   0.111   0.000   0.133     0.6     0.0     0.7   12267     0.0     851    0.00    0.85    0.00    0.80     0.0     0.0     0.0     0.0     0.0     0.0     0.0     0.0     29.     64.    152.    151.     47.     51.    163.    195.     0.0     0.1     0.2     0.2     0.0     0.1     0.2     0.2     0.0     0.0     0.0     0.0     0.0     0.0     0.0     0.0     0.0     0.0     0.1     0.1     0.0     0.0     0.3     0.3
 2020 218   113    0.05    0.00    0.05    1171    0.00   112.0   0.000   0.112   0.000   0.134     0.5     0.0     0.5   12417     0.0     898    0.00    0.90    0.00    0.83     0.0     0.0     0.0     0.0     0.0     0.0     0.0     0.0     35.     90.    155.    153.     48.     52.    166.    199.     0.0     0.1     0.2     0.2     0.0     0.1     0.2     0.2     0.0     0.0     0.0     0.0     0.0     0.0     0.0     0.0     0.0     0.0     0.1     0.1     0.0     0.0     0.3     0.3
 2020 219   114    0.05    0.00    0.05    1184    0.00   113.1   0.000   0.113   0.000   0.135     0.9     0.0     1.0   12434     0.0    1083    0.00    1.08    0.00    0.94     0.0     0.0     0.0     0.0     0.0     0.0     0.0     0.0     56.    255.    154.    153.     48.     52.    164.    200.     0.1     0.3     0.2     0.2     0.0     0.1     0.2     0.2     0.0     0.0     0.0     0.0     0.0     0.0     0.0     0.0     0.0     0.1     0.1     0.1     0.0     0.0     0.3     0.3
 2020 220   115    0.05    0.00    0.06    1196    0.00   113.9   0.000   0.114   0.000   0.136     0.4     0.0     0.5   12125     0.0     741    0.00    0.74    0.00    0.73     0.0     0.0     0.0     0.0     0.0     0.0     0.0     0.0     43.     58.     43.    147.     47.     51.    158.    196.     0.0     0.1     0.0     0.1     0.0     0.1     0.2     0.2     0.0     0.0     0.0     0.0     0.0     0.0     0.0     0.0     0.0     0.0     0.0     0.1     0.0     0.0     0.2     0.3
 2020 221   116    0.05    0.00    0.06    1209    0.00   115.0   0.000   0.115   0.000   0.137     1.0     0.0     1.1   12736     0.0    1129    0.00    1.13    0.00    0.96     0.0     0.0     0.0     0.0     0.0     0.0     0.0     0.0    172.    107.    222.    156.     50.     54.    164.    204.     0.2     0.1     0.2     0.2     0.0     0.1     0.2     0.2     0.0     0.0     0.0     0.0     0.0     0.0     0.0     0.0     0.1     0.1     0.1     0.1     0.0     0.1     0.3     0.3
 2020 222   117    0.05    0.00    0.06    1222    0.00   116.3   0.000   0.116   0.000   0.138     1.0     0.0     1.1   13492     0.0    1338    0.00    1.34    0.00    1.11     0.0     0.0     0.0     0.0     0.0     0.0     0.0     0.0    130.    324.    204.    173.     55.     59.    176.    217.     0.1     0.3     0.2     0.2     0.1     0.1     0.2     0.2     0.0     0.0     0.0     0.0     0.0     0.0     0.0     0.0     0.1     0.2     0.1     0.1     0.1     0.1     0.3     0.3
 2020 223   118    0.06    0.00    0.06    1236    0.00   117.6   0.000   0.118   0.000   0.139     1.0     0.0     1.1   14051     0.0    1261    0.00    1.26    0.00    1.08     0.0     0.0     0.0     0.0     0.0     0.0     0.0     0.0    109.    241.    197.    184.     58.     63.    182.    226.     0.1     0.2     0.2     0.2     0.1     0.1     0.2     0.2     0.0     0.0     0.0     0.0     0.0     0.0     0.0     0.0     0.1     0.1     0.1     0.1     0.1     0.1     0.3     0.3
 2020 224   119    0.06    0.00    0.06    1250    0.00   118.8   0.000   0.119   0.000   0.140     1.0     0.0     1.1   14270     0.0    1212    0.00    1.21    0.00    1.06     0.0     0.0     0.0     0.0     0.0     0.0     0.0     0.0    100.    204.    192.    185.     59.     63.    181.    229.     0.1     0.2     0.2     0.2     0.1     0.1     0.2     0.2     0.0     0.0     0.0     0.0     0.0     0.0     0.0     0.0     0.1     0.1     0.1     0.1     0.1     0.1     0.3     0.3
 2020 225   120    0.06    0.00    0.06    1265    0.00   120.0   0.000   0.120   0.000   0.141     1.1     0.0     1.2   14403     0.0    1215    0.00    1.22    0.00    1.07     0.0     0.0     0.0     0.0     0.0     0.0     0.0     0.0     97.    199.    194.    189.     60.     62.    182.    232.     0.1     0.2     0.2     0.2     0.1     0.1     0.2     0.2     0.0     0.0     0.0     0.0     0.0     0.0     0.0     0.0     0.1     0.1     0.1     0.1     0.1     0.1     0.3     0.3
 2020 226   121    0.06    0.00    0.06    1279    0.00   121.2   0.000   0.121   0.000   0.142     1.1     0.0     1.2   14107     0.0    1158    0.00    1.16    0.00    1.03     0.0     0.0     0.0     0.0     0.0     0.0     0.0     0.0     82.    189.    186.    182.     58.     59.    175.    228.     0.1     0.2     0.2     0.2     0.1     0.1     0.2     0.2     0.0     0.0     0.0     0.0     0.0     0.0     0.0     0.0     0.0     0.1     0.1     0.1     0.1     0.1     0.3     0.3
 2020 227   122    0.06    0.00    0.06    1293    0.00   122.3   0.000   0.122   0.000   0.143     1.2     0.0     1.3   13760     0.0    1120    0.00    1.12    0.00    1.01     0.0     0.0     0.0     0.0     0.0     0.0     0.0     0.0     71.    184.    181.    178.     57.     56.    169.    224.     0.1     0.2     0.2     0.2     0.1     0.1     0.2     0.2     0.0     0.0     0.0     0.0     0.0     0.0     0.0     0.0     0.0     0.1     0.1     0.1     0.1     0.1     0.3     0.3
 2020 228   123    0.06    0.00    0.06    1306    0.00   123.4   0.000   0.123   0.000   0.144     1.2     0.0     1.3   13357     0.0    1080    0.00    1.08    0.00    0.98     0.0     0.0     0.0     0.0     0.0     0.0     0.0     0.0     60.    178.    176.    173.     56.     54.    163.    219.     0.1     0.2     0.2     0.2     0.1     0.1     0.2     0.2     0.0     0.0     0.0     0.0     0.0     0.0     0.0     0.0     0.0     0.1     0.1     0.1     0.1     0.1     0.3     0.3
 2020 229   124    0.06    0.00    0.07    1319    0.00   124.4   0.000   0.124   0.000   0.145     1.3     0.0     1.4   13073     0.0    1063    0.00    1.06    0.00    0.97     0.0     0.0     0.0     0.0     0.0     0.0     0.0     0.0     54.    177.    175.    172.     55.     52.    161.    218.     0.1     0.2     0.2     0.2     0.1     0.1     0.2     0.2     0.0     0.0     0.0     0.0     0.0     0.0     0.0     0.0     0.0     0.1     0.1     0.1     0.1     0.0     0.3     0.3
 2020 230   125    0.06    0.00    0.07    1332    0.00   125.5   0.000   0.125   0.000   0.146     1.2     0.0     1.2   13042     0.0    1057    0.00    1.06    0.00    0.96     0.0     0.0     0.0     0.0     0.0     0.0     0.0     0.0     48.    177.    175.    173.     55.     51.    160.    218.     0.0     0.2     0.2     0.2     0.1     0.1     0.2     0.2     0.0     0.0     0.0     0.0     0.0     0.0     0.0     0.0     0.0     0.1     0.1     0.1     0.1     0.0     0.3     0.3
 2020 231   126    0.06    0.00    0.07    1345    0.00   126.6   0.000   0.127   0.000   0.147     1.2     0.0     1.3   12883     0.0    1082    0.00    1.08    0.00    0.98     0.0     0.0     0.0     0.0     0.0     0.0     0.0     0.0     58.    179.    180.    175.     55.     51.    161.    221.     0.1     0.2     0.2     0.2     0.1     0.1     0.2     0.2     0.0     0.0     0.0     0.0     0.0     0.0     0.0     0.0     0.0     0.1     0.1     0.1     0.1     0.0     0.3     0.3
 2020 232   127    0.07    0.00    0.07    1358    0.00   127.6   0.000   0.128   0.000   0.148     1.2     0.0     1.3   12586     0.0    1060    0.00    1.06    0.00    0.97     0.0     0.0     0.0     0.0     0.0     0.0     0.0     0.0     55.    174.    176.    171.     54.     50.    159.    221.     0.1     0.2     0.2     0.2     0.1     0.0     0.2     0.2     0.0     0.0     0.0     0.0     0.0     0.0     0.0     0.0     0.0     0.1     0.1     0.1     0.1     0.0     0.3     0.3
 2020 233   128    0.07    0.00    0.07    1370    0.00   128.7   0.000   0.129   0.000   0.149     1.3     0.0     1.4   12232     0.0    1022    0.00    1.02    0.00    0.95     0.0     0.0     0.0     0.0     0.0     0.0     0.0     0.0     49.    165.    169.    165.     52.     47.    156.    219.     0.0     0.2     0.2     0.2     0.1     0.0     0.2     0.2     0.0     0.0     0.0     0.0     0.0     0.0     0.0     0.0     0.0     0.1     0.1     0.1     0.0     0.0     0.3     0.3
 2020 234   129    0.07    0.00    0.07    1382    0.00   129.7   0.000   0.130   0.000   0.150     1.3     0.0     1.4   11976     0.0    1006    0.00    1.01    0.00    0.94     0.0     0.0     0.0     0.0     0.0     0.0     0.0     0.0     44.    161.    166.    162.     51.     46.    155.    220.     0.0     0.2     0.2     0.2     0.1     0.0     0.2     0.2     0.0     0.0     0.0     0.0     0.0     0.0     0.0     0.0     0.0     0.1     0.1     0.1     0.0     0.0     0.3     0.3
 2020 235   130    0.07    0.00    0.07    1396    0.00   130.2   0.000   0.130   0.000   0.151     0.7     0.0     0.8   14530     0.0     561    0.00    0.56    0.00    0.62     0.0     0.0     0.0     0.0     0.0     0.0     0.0     0.0     15.     48.     41.     40.     22.     22.    153.    220.     0.0     0.0     0.0     0.0     0.0     0.0     0.2     0.2     0.0     0.0     0.0     0.0     0.0     0.0     0.0     0.0     0.0     0.0     0.0     0.0     0.0     0.0     0.2     0.3
 2020 236   131    0.07    0.00    0.07    1412    0.00   131.1   0.000   0.131   0.000   0.151     0.9     0.0     1.0   15457     0.0     872    0.00    0.87    0.00    0.83     0.0     0.0     0.0     0.0     0.0     0.0     0.0     0.0     98.    106.     91.     88.     47.     47.    167.    229.     0.1     0.1     0.1     0.1     0.0     0.0     0.2     0.2     0.0     0.0     0.0     0.0     0.0     0.0     0.0     0.0     0.1     0.0     0.0     0.0     0.0     0.0     0.3     0.3
 2020 237   132    0.07    0.00    0.08    1427    0.00   132.8   0.000   0.133   0.000   0.153     0.9     0.0     1.0   15626     0.0    1670    0.00    1.67    0.00    1.30     0.0     0.0     0.0     0.0     0.0     0.0     0.0     0.0     94.    322.    339.    330.     84.     86.    185.    230.     0.1     0.3     0.3     0.3     0.1     0.1     0.2     0.2     0.0     0.0     0.0     0.0     0.0     0.0     0.0     0.0     0.0     0.2     0.2     0.1     0.1     0.1     0.3     0.3
 2020 238   133    0.07    0.00    0.08    1443    0.00   134.1   0.000   0.134   0.000   0.154     1.0     0.0     1.0   15801     0.0    1354    0.00    1.35    0.00    1.15     0.0     0.0     0.0     0.0     0.0     0.0     0.0     0.0     97.    225.    230.    228.     69.     73.    198.    235.     0.1     0.2     0.2     0.2     0.1     0.1     0.2     0.2     0.0     0.0     0.0     0.0     0.0     0.0     0.0     0.0     0.1     0.1     0.1     0.1     0.1     0.1     0.3     0.3
 2020 239   134    0.07    0.00    0.08    1459    0.00   135.4   0.000   0.135   0.000   0.155     1.0     0.0     1.1   15809     0.0    1272    0.00    1.27    0.00    1.12     0.0     0.0     0.0     0.0     0.0     0.0     0.0     0.0     98.    201.    202.    200.     64.     69.    201.    237.     0.1     0.2     0.2     0.2     0.1     0.1     0.2     0.2     0.0     0.0     0.0     0.0     0.0     0.0     0.0     0.0     0.1     0.1     0.1     0.1     0.1     0.1     0.3     0.4
 2020 240   135    0.07    0.00    0.08    1475    0.00   136.7   0.000   0.137   0.000   0.156     1.1     0.0     1.1   15837     0.0    1275    0.00    1.27    0.00    1.13     0.0     0.0     0.0     0.0     0.0     0.0     0.0     0.0     97.    201.    200.    198.     65.     70.    204.    240.     0.1     0.2     0.2     0.2     0.1     0.1     0.2     0.2     0.0     0.0     0.0     0.0     0.0     0.0     0.0     0.0     0.1     0.1     0.1     0.1     0.1     0.1     0.3     0.4
 2020 241   136    0.07    0.00    0.08    1491    0.00   137.9   0.000   0.138   0.000   0.157     1.1     0.0     1.2   15783     0.0    1267    0.00    1.27    0.00    1.13     0.0     0.0     0.0     0.0     0.0     0.0     0.0     0.0     86.    202.    201.    197.     65.     70.    204.    242.     0.1     0.2     0.2     0.2     0.1     0.1     0.2     0.2     0.0     0.0     0.0     0.0     0.0     0.0     0.0     0.0     0.1     0.1     0.1     0.1     0.1     0.1     0.3     0.4
 2020 242   137    0.08    0.00    0.08    1507    0.00   138.7   0.000   0.139   0.000   0.158     0.4     0.0     0.4   16247     0.0     720    0.00    0.72    0.00    0.79     0.0     0.0     0.0     0.0     0.0     0.0     0.0     0.0     22.     62.     53.     52.     38.     48.    203.    242.     0.0     0.1     0.1     0.1     0.0     0.0     0.2     0.2     0.0     0.0     0.0     0.0     0.0     0.0     0.0     0.0     0.0     0.0     0.0     0.0     0.0     0.0     0.3     0.4
 2020 243   138    0.08    0.00    0.08    1522    0.00   139.5   0.000   0.139   0.000   0.159     0.4     0.0     0.5   15427     0.0     803    0.00    0.80    0.00    0.77     0.0     0.0     0.0     0.0     0.0     0.0     0.0     0.0     38.     93.     82.     80.     46.     51.    185.    227.     0.0     0.1     0.1     0.1     0.0     0.1     0.2     0.2     0.0     0.0     0.0     0.0     0.0     0.0     0.0     0.0     0.0     0.0     0.0     0.0     0.0     0.0     0.3     0.3
 2020 244   139    0.08    0.00    0.08    1538    0.00   140.6   0.000   0.141   0.000   0.160     1.0     0.0     1.1   15825     0.0    1119    0.00    1.12    0.00    1.01     0.0     0.0     0.0     0.0     0.0     0.0     0.0     0.0    173.    151.    129.    125.     59.     63.    190.    228.     0.2     0.2     0.1     0.1     0.1     0.1     0.2     0.2     0.0     0.0     0.0     0.0     0.0     0.0     0.0     0.0     0.1     0.1     0.1     0.1     0.0     0.1     0.3     0.3
 2020 245   140    0.08    0.00    0.08    1553    0.00   142.3   0.000   0.142   0.000   0.161     1.0     0.0     1.1   14879     0.0    1741    0.00    1.74    0.00    1.31     0.0     0.0     0.0     0.0     0.0     0.0     0.0     0.0     97.    342.    369.    365.     82.     85.    186.    215.     0.1     0.3     0.4     0.4     0.1     0.1     0.2     0.2     0.0     0.0     0.0     0.0     0.0     0.0     0.0     0.0     0.0     0.2     0.2     0.2     0.1     0.1     0.3     0.3
 2020 246   141    0.08    0.00    0.08    1567    0.00   143.5   0.000   0.144   0.000   0.162     1.0     0.0     1.1   13820     0.0    1191    0.00    1.19    0.00    1.01     0.0     0.0     0.0     0.0     0.0     0.0     0.0     0.0     79.    196.    207.    208.     59.     64.    175.    204.     0.1     0.2     0.2     0.2     0.1     0.1     0.2     0.2     0.0     0.0     0.0     0.0     0.0     0.0     0.0     0.0     0.0     0.1     0.1     0.1     0.1     0.1     0.3     0.3
 2020 247   142    0.08    0.00    0.08    1580    0.00   144.6   0.000   0.145   0.000   0.163     1.1     0.0     1.1   13280     0.0    1061    0.00    1.06    0.00    0.94     0.0     0.0     0.0     0.0     0.0     0.0     0.0     0.0     74.    164.    169.    170.     53.     58.    173.    201.     0.1     0.2     0.2     0.2     0.1     0.1     0.2     0.2     0.0     0.0     0.0     0.0     0.0     0.0     0.0     0.0     0.0     0.1     0.1     0.1     0.0     0.1     0.3     0.3
 2020 248   143    0.08    0.00    0.09    1594    0.00   145.6   0.000   0.146   0.000   0.164     1.1     0.0     1.2   13318     0.0    1070    0.00    1.07    0.00    0.96     0.0     0.0     0.0     0.0     0.0     0.0     0.0     0.0     78.    162.    165.    165.     54.     59.    179.    207.     0.1     0.2     0.2     0.2     0.1     0.1     0.2     0.2     0.0     0.0     0.0     0.0     0.0     0.0     0.0     0.0     0.0     0.1     0.1     0.1     0.0     0.1     0.3     0.3
 2020 249   144    0.08    0.00    0.09    1607    0.00   146.7   0.000   0.147   0.000   0.165     1.2     0.0     1.2   13021     0.0    1035    0.00    1.03    0.00    0.94     0.0     0.0     0.0     0.0     0.0     0.0     0.0     0.0     71.    155.    158.    158.     53.     58.    177.    205.     0.1     0.2     0.2     0.2     0.1     0.1     0.2     0.2     0.0     0.0     0.0     0.0     0.0     0.0     0.0     0.0     0.0     0.1     0.1     0.1     0.0     0.1     0.3     0.3
 2020 250   145    0.08    0.00    0.09    1620    0.00   147.8   0.000   0.148   0.000   0.166     1.2     0.0     1.3   13642     0.0    1123    0.00    1.12    0.00    1.02     0.0     0.0     0.0     0.0     0.0     0.0     0.0     0.0     73.    173.    174.    173.     58.     63.    192.    219.     0.1     0.2     0.2     0.2     0.1     0.1     0.2     0.2     0.0     0.0     0.0     0.0     0.0     0.0     0.0     0.0     0.0     0.1     0.1     0.1     0.1     0.1     0.3     0.3
 2020 251   146    0.08    0.00    0.09    1635    0.00   149.0   0.000   0.149   0.000   0.167     1.3     0.0     1.3   14456     0.0    1223    0.00    1.22    0.00    1.11     0.0     0.0     0.0     0.0     0.0     0.0     0.0     0.0     73.    193.    193.    190.     64.     70.    208.    234.     0.1     0.2     0.2     0.2     0.1     0.1     0.2     0.2     0.0     0.0     0.0     0.0     0.0     0.0     0.0     0.0     0.0     0.1     0.1     0.1     0.1     0.1     0.3     0.3
 2020 252   147    0.09    0.00    0.09    1649    0.00   150.2   0.000   0.150   0.000   0.168     1.3     0.0     1.4   14576     0.0    1203    0.00    1.20    0.00    1.10     0.0     0.0     0.0     0.0     0.0     0.0     0.0     0.0     62.    190.    190.    188.     63.     69.    206.    234.     0.1     0.2     0.2     0.2     0.1     0.1     0.2     0.2     0.0     0.0     0.0     0.0     0.0     0.0     0.0     0.0     0.0     0.1     0.1     0.1     0.1     0.1     0.3     0.3
 2020 253   148    0.09    0.00    0.09    1663    0.00   151.2   0.000   0.151   0.000   0.169     1.0     0.0     1.1   13922     0.0    1021    0.00    1.02    0.00    0.94     0.0     0.0     0.0     0.0     0.0     0.0     0.0     0.0     45.    156.    158.    158.     54.     59.    179.    212.     0.0     0.2     0.2     0.2     0.1     0.1     0.2     0.2     0.0     0.0     0.0     0.0     0.0     0.0     0.0     0.0     0.0     0.1     0.1     0.1     0.0     0.1     0.3     0.3
 2020 254   149    0.09    0.00    0.09    1675    0.00   151.8   0.000   0.152   0.000   0.170     0.5     0.0     0.5   11597     0.0     532    0.00    0.53    0.00    0.61     0.0     0.0     0.0     0.0     0.0     0.0     0.0     0.0     15.     32.     32.     42.     41.     46.    144.    179.     0.0     0.0     0.0     0.0     0.0     0.0     0.1     0.2     0.0     0.0     0.0     0.0     0.0     0.0     0.0     0.0     0.0     0.0     0.0     0.0     0.0     0.0     0.2     0.3
 2020 255   150    0.09    0.00    0.09    1684    0.00   152.3   0.000   0.152   0.000   0.170     0.7     0.0     0.7    9555     0.0     488    0.00    0.49    0.00    0.54     0.0     0.0     0.0     0.0     0.0     0.0     0.0     0.0     19.     42.     37.     40.     34.     38.    121.    157.     0.0     0.0     0.0     0.0     0.0     0.0     0.1     0.2     0.0     0.0     0.0     0.0     0.0     0.0     0.0     0.0     0.0     0.0     0.0     0.0     0.0     0.0     0.2     0.2
 2020 256   151    0.09    0.00    0.09    1693    0.00   152.8   0.000   0.153   0.000   0.171     1.0     0.0     1.0    8273     0.0     550    0.00    0.55    0.00    0.55     0.0     0.0     0.0     0.0     0.0     0.0     0.0     0.0     21.     47.     42.    123.     29.     33.    109.    146.     0.0     0.0     0.0     0.1     0.0     0.0     0.1     0.1     0.0     0.0     0.0     0.0     0.0     0.0     0.0     0.0     0.0     0.0     0.0     0.1     0.0     0.0     0.2     0.2
 2020 257   152    0.09    0.00    0.10    1700    0.00   153.5   0.000   0.154   0.000   0.171     1.0     0.0     1.1    7709     0.0     700    0.00    0.70    0.00    0.62     0.0     0.0     0.0     0.0     0.0     0.0     0.0     0.0     51.    112.    123.    106.     28.     32.    105.    143.     0.1     0.1     0.1     0.1     0.0     0.0     0.1     0.1     0.0     0.0     0.0     0.0     0.0     0.0     0.0     0.0     0.0     0.1     0.1     0.0     0.0     0.0     0.2     0.2
 2020 258   153    0.09    0.00    0.10    1709    0.00   154.3   0.000   0.154   0.000   0.172     1.1     0.0     1.1    9090     0.0     794    0.00    0.79    0.00    0.70     0.0     0.0     0.0     0.0     0.0     0.0     0.0     0.0     58.    126.    135.    120.     34.     38.    122.    161.     0.1     0.1     0.1     0.1     0.0     0.0     0.1     0.2     0.0     0.0     0.0     0.0     0.0     0.0     0.0     0.0     0.0     0.1     0.1     0.1     0.0     0.0     0.2     0.2
 2020 259   154    0.09    0.00    0.10    1721    0.00   155.3   0.000   0.155   0.000   0.173     1.1     0.0     1.1   11171     0.0     978    0.00    0.98    0.00    0.86     0.0     0.0     0.0     0.0     0.0     0.0     0.0     0.0     74.    156.    164.    149.     45.     49.    151.    189.     0.1     0.2     0.2     0.1     0.0     0.0     0.2     0.2     0.0     0.0     0.0     0.0     0.0     0.0     0.0     0.0     0.0     0.1     0.1     0.1     0.0     0.0     0.2     0.3
 2020 260   155    0.09    0.00    0.10    1733    0.00   156.4   0.000   0.156   0.000   0.174     1.1     0.0     1.2   12632     0.0    1113    0.00    1.11    0.00    0.98     0.0     0.0     0.0     0.0     0.0     0.0     0.0     0.0     86.    177.    183.    170.     54.     59.    174.    211.     0.1     0.2     0.2     0.2     0.1     0.1     0.2     0.2     0.0     0.0     0.0     0.0     0.0     0.0     0.0     0.0     0.0     0.1     0.1     0.1     0.0     0.1     0.3     0.3
 2020 261   156    0.09    0.00    0.10    1746    0.00   157.5   0.000   0.158   0.000   0.175     1.2     0.0     1.2   13049     0.0    1109    0.00    1.11    0.00    0.99     0.0     0.0     0.0     0.0     0.0     0.0     0.0     0.0     81.    173.    177.    170.     56.     61.    177.    215.     0.1     0.2     0.2     0.2     0.1     0.1     0.2     0.2     0.0     0.0     0.0     0.0     0.0     0.0     0.0     0.0     0.0     0.1     0.1     0.1     0.1     0.1     0.3     0.3
 2020 262   157    0.10    0.00    0.10    1759    0.00   158.5   0.000   0.159   0.000   0.176     1.2     0.0     1.3   12763     0.0    1034    0.00    1.03    0.00    0.94     0.0     0.0     0.0     0.0     0.0     0.0     0.0     0.0     68.    157.    161.    158.     53.     58.    170.    209.     0.1     0.2     0.2     0.2     0.1     0.1     0.2     0.2     0.0     0.0     0.0     0.0     0.0     0.0     0.0     0.0     0.0     0.1     0.1     0.1     0.0     0.1     0.3     0.3
[...]
 2020 238   133    0.07    0.00    0.08    1430    0.00   133.2   0.000   0.134   0.000   0.154     1.3     0.0     1.4   13641     0.0    1144    0.00    1.14    0.00    1.04     0.0     0.0     0.0     0.0     0.0     0.0     0.0     0.0     50.    191.    186.    185.     61.     66.    175.    230.     0.0     0.2     0.2     0.2     0.1     0.1     0.2     0.2     0.0     0.0     0.0     0.0     0.0     0.0     0.0     0.0     0.0     0.1     0.1     0.1     0.1     0.1     0.3     0.3
 2020 239   134    0.07    0.00    0.08    1443    0.00   134.3   0.000   0.135   0.000   0.155     1.3     0.0     1.4   13443     0.0    1132    0.00    1.13    0.00    1.04     0.0     0.0     0.0     0.0     0.0     0.0     0.0     0.0     45.    187.    183.    182.     61.     67.    175.    232.     0.0     0.2     0.2     0.2     0.1     0.1     0.2     0.2     0.0     0.0     0.0     0.0     0.0     0.0     0.0     0.0     0.0     0.1     0.1     0.1     0.1     0.1     0.3     0.3
 2020 240   135    0.08    0.00    0.08    1457    0.00   135.5   0.000   0.136   0.000   0.156     1.3     0.0     1.4   13310     0.0    1124    0.00    1.12    0.00    1.05     0.0     0.0     0.0     0.0     0.0     0.0     0.0     0.0     40.    184.    180.    181.     61.     67.    175.    236.     0.0     0.2     0.2     0.2     0.1     0.1     0.2     0.2     0.0     0.0     0.0     0.0     0.0     0.0     0.0     0.0     0.0     0.1     0.1     0.1     0.1     0.1     0.3     0.4
 2020 241   136    0.08    0.00    0.08    1470    0.00   136.6   0.000   0.137   0.000   0.157     1.3     0.0     1.4   13120     0.0    1100    0.00    1.10    0.00    1.04     0.0     0.0     0.0     0.0     0.0     0.0     0.0     0.0     34.    178.    175.    176.     60.     66.    174.    237.     0.0     0.2     0.2     0.2     0.1     0.1     0.2     0.2     0.0     0.0     0.0     0.0     0.0     0.0     0.0     0.0     0.0     0.1     0.1     0.1     0.1     0.1     0.3     0.4
 2020 242   137    0.08    0.00    0.08    1487    0.00   137.2   0.000   0.138   0.000   0.158     0.7     0.0     0.7   17250     0.0     621    0.00    0.62    0.00    0.67     0.0     0.0     0.0     0.0     0.0     0.0     0.0     0.0     14.     54.     44.     44.     27.     29.    173.    237.     0.0     0.1     0.0     0.0     0.0     0.0     0.2     0.2     0.0     0.0     0.0     0.0     0.0     0.0     0.0     0.0     0.0     0.0     0.0     0.0     0.0     0.0     0.3     0.4
 2020 243   138    0.08    0.00    0.08    1504    0.00   138.0   0.000   0.139   0.000   0.158     0.4     0.0     0.4   16578     0.0     818    0.00    0.82    0.00    0.79     0.0     0.0     0.0     0.0     0.0     0.0     0.0     0.0     30.     93.     79.     76.     44.     46.    219.    231.     0.0     0.1     0.1     0.1     0.0     0.0     0.2     0.2     0.0     0.0     0.0     0.0     0.0     0.0     0.0     0.0     0.0     0.0     0.0     0.0     0.0     0.0     0.3     0.3
 2020 244   139    0.08    0.00    0.08    1521    0.00   139.6   0.000   0.140   0.000   0.160     0.9     0.0     1.0   16844     0.0    1553    0.00    1.55    0.00    1.24     0.0     0.0     0.0     0.0     0.0     0.0     0.0     0.0    150.    338.    351.    122.     61.     66.    236.    230.     0.2     0.3     0.4     0.1     0.1     0.1     0.2     0.2     0.0     0.0     0.0     0.0     0.0     0.0     0.0     0.0     0.1     0.2     0.2     0.1     0.0     0.0     0.3     0.3
 2020 245   140    0.08    0.00    0.08    1536    0.00   141.0   0.000   0.142   0.000   0.161     1.0     0.0     1.0   15821     0.0    1457    0.00    1.46    0.00    1.21     0.0     0.0     0.0     0.0     0.0     0.0     0.0     0.0     92.    194.    199.    354.     84.     93.    224.    217.     0.1     0.2     0.2     0.4     0.1     0.1     0.2     0.2     0.0     0.0     0.0     0.0     0.0     0.0     0.0     0.0     0.0     0.1     0.1     0.2     0.1     0.1     0.3     0.3
 2020 246   141    0.08    0.00    0.09    1551    0.00   142.2   0.000   0.143   0.000   0.162     1.0     0.0     1.0   14662     0.0    1140    0.00    1.14    0.00    1.02     0.0     0.0     0.0     0.0     0.0     0.0     0.0     0.0     77.    157.    160.    204.     60.     66.    211.    204.     0.1     0.2     0.2     0.2     0.1     0.1     0.2     0.2     0.0     0.0     0.0     0.0     0.0     0.0     0.0     0.0     0.0     0.1     0.1     0.1     0.1     0.1     0.3     0.3
 2020 247   142    0.08    0.00    0.09    1565    0.00   143.2   0.000   0.144   0.000   0.163     1.0     0.0     1.1   14048     0.0    1065    0.00    1.07    0.00    0.97     0.0     0.0     0.0     0.0     0.0     0.0     0.0     0.0     74.    149.    151.    168.     53.     59.    209.    201.     0.1     0.1     0.2     0.2     0.1     0.1     0.2     0.2     0.0     0.0     0.0     0.0     0.0     0.0     0.0     0.0     0.0     0.1     0.1     0.1     0.0     0.1     0.3     0.3
 2020 248   143    0.08    0.00    0.09    1579    0.00   144.3   0.000   0.145   0.000   0.164     1.1     0.0     1.1   14073     0.0    1093    0.00    1.09    0.00    1.00     0.0     0.0     0.0     0.0     0.0     0.0     0.0     0.0     76.    156.    157.    164.     54.     60.    218.    207.     0.1     0.2     0.2     0.2     0.1     0.1     0.2     0.2     0.0     0.0     0.0     0.0     0.0     0.0     0.0     0.0     0.0     0.1     0.1     0.1     0.1     0.1     0.3     0.3
 2020 249   144    0.08    0.00    0.09    1593    0.00   145.4   0.000   0.146   0.000   0.165     1.1     0.0     1.2   13751     0.0    1066    0.00    1.07    0.00    0.99     0.0     0.0     0.0     0.0     0.0     0.0     0.0     0.0     69.    153.    154.    157.     53.     58.    217.    206.     0.1     0.2     0.2     0.2     0.1     0.1     0.2     0.2     0.0     0.0     0.0     0.0     0.0     0.0     0.0     0.0     0.0     0.1     0.1     0.1     0.0     0.1     0.3     0.3
 2020 250   145    0.08    0.00    0.09    1607    0.00   146.5   0.000   0.147   0.000   0.166     1.2     0.0     1.2   14399     0.0    1163    0.00    1.16    0.00    1.08     0.0     0.0     0.0     0.0     0.0     0.0     0.0     0.0     70.    171.    172.    172.     58.     64.    236.    220.     0.1     0.2     0.2     0.2     0.1     0.1     0.2     0.2     0.0     0.0     0.0     0.0     0.0     0.0     0.0     0.0     0.0     0.1     0.1     0.1     0.1     0.1     0.3     0.3
 2020 251   146    0.09    0.00    0.09    1623    0.00   147.8   0.000   0.149   0.000   0.167     1.2     0.0     1.3   15255     0.0    1271    0.00    1.27    0.00    1.17     0.0     0.0     0.0     0.0     0.0     0.0     0.0     0.0     70.    192.    192.    190.     64.     70.    258.    235.     0.1     0.2     0.2     0.2     0.1     0.1     0.3     0.2     0.0     0.0     0.0     0.0     0.0     0.0     0.0     0.0     0.0     0.1     0.1     0.1     0.1     0.1     0.4     0.4
 2020 252   147    0.09    0.00    0.09    1638    0.00   149.1   0.000   0.150   0.000   0.168     1.2     0.0     1.3   15379     0.0    1253    0.00    1.25    0.00    1.16     0.0     0.0     0.0     0.0     0.0     0.0     0.0     0.0     60.    189.    190.    188.     63.     70.    258.    236.     0.1     0.2     0.2     0.2     0.1     0.1     0.3     0.2     0.0     0.0     0.0     0.0     0.0     0.0     0.0     0.0     0.0     0.1     0.1     0.1     0.1     0.1     0.4     0.4
 2020 253   148    0.09    0.00    0.09    1653    0.00   150.1   0.000   0.151   0.000   0.169     1.0     0.0     1.0   14677     0.0    1066    0.00    1.07    0.00    1.00     0.0     0.0     0.0     0.0     0.0     0.0     0.0     0.0     43.    156.    158.    158.     54.     60.    226.    213.     0.0     0.2     0.2     0.2     0.1     0.1     0.2     0.2     0.0     0.0     0.0     0.0     0.0     0.0     0.0     0.0     0.0     0.1     0.1     0.1     0.0     0.1     0.3     0.3
 2020 254   149    0.09    0.00    0.09    1665    0.00   150.8   0.000   0.152   0.000   0.170     0.4     0.0     0.5   12257     0.0     650    0.00    0.65    0.00    0.69     0.0     0.0     0.0     0.0     0.0     0.0     0.0     0.0     14.     32.     35.    120.     41.     46.    182.    179.     0.0     0.0     0.0     0.1     0.0     0.0     0.2     0.2     0.0     0.0     0.0     0.0     0.0     0.0     0.0     0.0     0.0     0.0     0.0     0.1     0.0     0.0     0.3     0.3
 2020 255   150    0.09    0.00    0.10    1675    0.00   151.3   0.000   0.152   0.000   0.170     0.7     0.0     0.7   10116     0.0     515    0.00    0.51    0.00    0.58     0.0     0.0     0.0     0.0     0.0     0.0     0.0     0.0     19.     43.     38.     34.     34.     38.    153.    157.     0.0     0.0     0.0     0.0     0.0     0.0     0.2     0.2     0.0     0.0     0.0     0.0     0.0     0.0     0.0     0.0     0.0     0.0     0.0     0.0     0.0     0.0     0.2     0.2
 2020 256   151    0.09    0.00    0.10    1684    0.00   151.9   0.000   0.153   0.000   0.171     0.9     0.0     1.0    8725     0.0     557    0.00    0.56    0.00    0.58     0.0     0.0     0.0     0.0     0.0     0.0     0.0     0.0     21.     47.     42.    102.     29.     33.    138.    145.     0.0     0.0     0.0     0.1     0.0     0.0     0.1     0.1     0.0     0.0     0.0     0.0     0.0     0.0     0.0     0.0     0.0     0.0     0.0     0.0     0.0     0.0     0.2     0.2
 2020 257   152    0.09    0.00    0.10    1692    0.00   152.6   0.000   0.153   0.000   0.172     1.0     0.0     1.1    8129     0.0     712    0.00    0.71    0.00    0.64     0.0     0.0     0.0     0.0     0.0     0.0     0.0     0.0     51.    112.    122.     92.     28.     32.    134.    142.     0.1     0.1     0.1     0.1     0.0     0.0     0.1     0.1     0.0     0.0     0.0     0.0     0.0     0.0     0.0     0.0     0.0     0.1     0.1     0.0     0.0     0.0     0.2     0.2
 2020 258   153    0.09    0.00    0.10    1701    0.00   153.4   0.000   0.154   0.000   0.172     1.0     0.0     1.1    9577     0.0     814    0.00    0.81    0.00    0.74     0.0     0.0     0.0     0.0     0.0     0.0     0.0     0.0     58.    125.    134.    107.     34.     38.    156.    160.     0.1     0.1     0.1     0.1     0.0     0.0     0.2     0.2     0.0     0.0     0.0     0.0     0.0     0.0     0.0     0.0     0.0     0.1     0.1     0.0     0.0     0.0     0.2     0.2
 2020 259   154    0.09    0.00    0.10    1713    0.00   154.4   0.000   0.155   0.000   0.173     1.0     0.0     1.1   11756     0.0    1009    0.00    1.01    0.00    0.91     0.0     0.0     0.0     0.0     0.0     0.0     0.0     0.0     74.    156.    163.    138.     45.     49.    195.    189.     0.1     0.2     0.2     0.1     0.0     0.0     0.2     0.2     0.0     0.0     0.0     0.0     0.0     0.0     0.0     0.0     0.0     0.1     0.1     0.1     0.0     0.0     0.3     0.3
 2020 260   155    0.09    0.00    0.10    1726    0.00   155.5   0.000   0.156   0.000   0.174     1.1     0.0     1.1   13291     0.0    1157    0.00    1.16    0.00    1.05     0.0     0.0     0.0     0.0     0.0     0.0     0.0     0.0     85.    177.    182.    162.     54.     59.    226.    211.     0.1     0.2     0.2     0.2     0.1     0.1     0.2     0.2     0.0     0.0     0.0     0.0     0.0     0.0     0.0     0.0     0.0     0.1     0.1     0.1     0.0     0.1     0.3     0.3
 2020 261   156    0.10    0.00    0.10    1740    0.00   156.7   0.000   0.158   0.000   0.175     1.1     0.0     1.2   13731     0.0    1159    0.00    1.16    0.00    1.06     0.0     0.0     0.0     0.0     0.0     0.0     0.0     0.0     80.    173.    176.    166.     56.     61.    232.    216.     0.1     0.2     0.2     0.2     0.1     0.1     0.2     0.2     0.0     0.0     0.0     0.0     0.0     0.0     0.0     0.0     0.0     0.1     0.1     0.1     0.1     0.1     0.3     0.3
 2020 262   157    0.10    0.00    0.10    1754    0.00   157.8   0.000   0.159   0.000   0.176     1.2     0.0     1.2   13433     0.0    1084    0.00    1.08    0.00    1.01     0.0     0.0     0.0     0.0     0.0     0.0     0.0     0.0     67.    157.    160.    156.     53.     58.    223.    209.     0.1     0.2     0.2     0.2     0.1     0.1     0.2     0.2     0.0     0.0     0.0     0.0     0.0     0.0     0.0     0.0     0.0     0.1     0.1     0.1     0.0     0.1     0.3     0.3
 2020 263   158    0.10    0.00    0.10    1767    0.00   158.8   0.000   0.160   0.000   0.177     1.2     0.0     1.3   13141     0.0    1041    0.00    1.04    0.00    0.98     0.0     0.0     0.0     0.0     0.0     0.0     0.0     0.0     58.    149.    152.    151.     52.     57.    218.    205.     0.1     0.1     0.2     0.2     0.1     0.1     0.2     0.2     0.0     0.0     0.0     0.0     0.0     0.0     0.0     0.0     0.0     0.1     0.1     0.1     0.0     0.1     0.3     0.3
 2020 264   159    0.10    0.00    0.11    1780    0.00   159.9   0.000   0.161   0.000   0.178     1.2     0.0     1.3   13095     0.0    1039    0.00    1.04    0.00    0.98     0.0     0.0     0.0     0.0     0.0     0.0     0.0     0.0     52.    149.    152.    151.     52.     57.    219.    206.     0.1     0.1     0.2     0.2     0.1     0.1     0.2     0.2     0.0     0.0     0.0     0.0     0.0     0.0     0.0     0.0     0.0     0.1     0.1     0.1     0.0     0.1     0.3     0.3
 2020 265   160    0.10    0.00    0.11    1793    0.00   160.9   0.000   0.162   0.000   0.179     1.3     0.0     1.3   13221     0.0    1058    0.00    1.06    0.00    1.00     0.0     0.0     0.0     0.0     0.0     0.0     0.0     0.0     48.    153.    156.    155.     54.     58.    224.    210.     0.0     0.2     0.2     0.2     0.1     0.1     0.2     0.2     0.0     0.0     0.0     0.0     0.0     0.0     0.0     0.0     0.0     0.1     0.1     0.1     0.0     0.1     0.3     0.3
 2020 266   161    0.10    0.00    0.11    1806    0.00   162.0   0.000   0.163   0.000   0.180     1.3     0.0     1.3   13300     0.0    1068    0.00    1.07    0.00    1.01     0.0     0.0     0.0     0.0     0.0     0.0     0.0     0.0     43.    155.    158.    158.     55.     59.    228.    212.     0.0     0.2     0.2     0.2     0.1     0.1     0.2     0.2     0.0     0.0     0.0     0.0     0.0     0.0     0.0     0.0     0.0     0.1     0.1     0.1     0.1     0.1     0.3     0.3
 2020 267   162    0.10    0.00    0.11    1820    0.00   163.1   0.000   0.164   0.000   0.181     1.3     0.0     1.3   13412     0.0    1081    0.00    1.08    0.00    1.03     0.0     0.0     0.0     0.0     0.0     0.0     0.0     0.0     39.    158.    161.    161.     56.     60.    231.    214.     0.0     0.2     0.2     0.2     0.1     0.1     0.2     0.2     0.0     0.0     0.0     0.0     0.0     0.0     0.0     0.0     0.0     0.1     0.1     0.1     0.1     0.1     0.3     0.3
 2020 268   163    0.10    0.00    0.11    1833    0.00   164.2   0.000   0.165   0.000   0.183     1.3     0.0     1.3   13528     0.0    1093    0.00    1.09    0.00    1.04     0.0     0.0     0.0     0.0     0.0     0.0     0.0     0.0     35.    161.    164.    164.     57.     61.    235.    217.     0.0     0.2     0.2     0.2     0.1     0.1     0.2     0.2     0.0     0.0     0.0     0.0     0.0     0.0     0.0     0.0     0.0     0.1     0.1     0.1     0.1     0.1     0.3     0.3
 2020 269   164    0.11    0.00    0.11    1847    0.00   165.3   0.000   0.166   0.000   0.184     1.3     0.0     1.3   13989     0.0    1149    0.00    1.15    0.00    1.09     0.0     0.0     0.0     0.0     0.0     0.0     0.0     0.0     31.    172.    175.    174.     60.     65.    247.    225.     0.0     0.2     0.2     0.2     0.1     0.1     0.2     0.2     0.0     0.0     0.0     0.0     0.0     0.0     0.0     0.0     0.0     0.1     0.1     0.1     0.1     0.1     0.4     0.3
 2020 270   165    0.11    0.00    0.11    1862    0.00   166.5   0.000   0.167   0.000   0.185     1.3     0.0     1.3   14403     0.0    1193    0.00    1.19    0.00    1.13     0.0     0.0     0.0     0.0     0.0     0.0     0.0     0.0     29.    181.    183.    182.     63.     67.    256.    232.     0.0     0.2     0.2     0.2     0.1     0.1     0.3     0.2     0.0     0.0     0.0     0.0     0.0     0.0     0.0     0.0     0.0     0.1     0.1     0.1     0.1     0.1     0.4     0.3
 2020 271   166    0.11    0.00    0.11    1876    0.00   167.7   0.000   0.169   0.000   0.186     1.3     0.0     1.3   14690     0.0    1218    0.00    1.22    0.00    1.15     0.0     0.0     0.0     0.0     0.0     0.0     0.0     0.0     26.    186.    188.    187.     64.     68.    262.    236.     0.0     0.2     0.2     0.2     0.1     0.1     0.3     0.2     0.0     0.0     0.0     0.0     0.0     0.0     0.0     0.0     0.0     0.1     0.1     0.1     0.1     0.1     0.4     0.4
 2020 272   167    0.11    0.00    0.12    1890    0.00   168.9   0.000   0.170   0.000   0.187     1.2     0.0     1.3   14111     0.0    1125    0.00    1.13    0.00    1.07     0.0     0.0     0.0     0.0     0.0     0.0     0.0     0.0     21.    167.    172.    172.     59.     63.    246.    225.     0.0     0.2     0.2     0.2     0.1     0.1     0.2     0.2     0.0     0.0     0.0     0.0     0.0     0.0     0.0     0.0     0.0     0.1     0.1     0.1     0.1     0.1     0.4     0.3
 2020 273   168    0.11    0.00    0.12    1904    0.00   169.9   0.000   0.171   0.000   0.188     1.2     0.0     1.3   13099     0.0    1029    0.00    1.03    0.00    0.99     0.0     0.0     0.0     0.0     0.0     0.0     0.0     0.0     17.    149.    156.    156.     54.     57.    228.    212.     0.0     0.1     0.2     0.2     0.1     0.1     0.2     0.2     0.0     0.0     0.0     0.0     0.0     0.0     0.0     0.0     0.0     0.1     0.1     0.1     0.1     0.1     0.3     0.3
 2020 274   169    0.11    0.00    0.12    1916    0.00   170.9   0.000   0.172   0.000   0.189     1.2     0.0     1.3   12346     0.0     981    0.00    0.98    0.00    0.95     0.0     0.0     0.0     0.0     0.0     0.0     0.0     0.0     16.    139.    148.    149.     52.     54.    219.    206.     0.0     0.1     0.1     0.1     0.1     0.1     0.2     0.2     0.0     0.0     0.0     0.0     0.0     0.0     0.0     0.0     0.0     0.1     0.1     0.1     0.0     0.1     0.3     0.3
 2020 275   170    0.11    0.00    0.12    1927    0.00   171.8   0.000   0.173   0.000   0.190     1.2     0.0     1.3   11318     0.0     898    0.00    0.90    0.00    0.88     0.0     0.0     0.0     0.0     0.0     0.0     0.0     0.0     14.    123.    133.    135.     47.     49.    203.    194.     0.0     0.1     0.1     0.1     0.0     0.0     0.2     0.2     0.0     0.0     0.0     0.0     0.0     0.0     0.0     0.0     0.0     0.1     0.1     0.1     0.0     0.0     0.3     0.3
 2020 276   171    0.11    0.00    0.12    1937    0.00   172.6   0.000   0.173   0.000   0.191     1.2     0.0     1.3   10096     0.0     800    0.00    0.80    0.00    0.79     0.0     0.0     0.0     0.0     0.0     0.0     0.0     0.0     11.    105.    116.    118.     42.     43.    184.    180.     0.0     0.1     0.1     0.1     0.0     0.0     0.2     0.2     0.0     0.0     0.0     0.0     0.0     0.0     0.0     0.0     0.0     0.1     0.1     0.1     0.0     0.0     0.3     0.3
 2020 277   172    0.12    0.00    0.12    1947    0.00   173.4   0.000   0.174   0.000   0.191     1.2     0.0     1.2   10109     0.0     832    0.00    0.83    0.00    0.82     0.0     0.0     0.0     0.0     0.0     0.0     0.0     0.0     12.    109.    122.    124.     44.     45.    192.    186.     0.0     0.1     0.1     0.1     0.0     0.0     0.2     0.2     0.0     0.0     0.0     0.0     0.0     0.0     0.0     0.0     0.0     0.1     0.1     0.1     0.0     0.0     0.3     0.3
