*N2O emissions output file

*DSSAT Cropping System Model Ver. 4.7.5.035 -develop  JUN 14, 2021 09:08:55

*RUN   1        : 20 IRRIG, PETPEN NO KCB.. MZCER047 KSRT2001    1
 MODEL          : MZCER047 - Maize
 EXPERIMENT     : KSRT2001 SB ARM 2020 KS, IRRIGATED
 DATA PATH      :
 TREATMENT  1   : 20 IRRIG, PETPEN NO KCB.. MZCER047
  
!              |---------------------------------- Cumulative ---------------------------------|---------------------------------- Daily --------------------------------------|
!               N2Oemit  N2emit  NOemit     CO2   Denit  Nitrif   N2O-denit+nit      N2      NO N2Oemit  N2emit  NOemit     CO2   Denit  Nitrif   N2O-denit+nit      N2      NO   Denitrification (g[N]/ha) by soil depth (cm):                   Nitrification (g[N]/ha) by soil depth (cm):                     N2O flux (g[N]/ha) by soil depth (cm):                          N2 flux (g[N]/ha) by soil depth (cm):                           NO flux (g[N]/ha) by soil depth (cm):
!                 kg/ha   kg/ha   kg/ha   kg/ha   kg/ha   kg/ha   kg/ha   kg/ha   kg/ha   kg/ha    g/ha    g/ha    g/ha    g/ha    g/ha    g/ha    g/ha    g/ha    g/ha    g/ha     0-5    5-15   15-29   29-43   43-53   53-64  64-132 132-201     0-5    5-15   15-29   29-43   43-53   53-64  64-132 132-201     0-5    5-15   15-29   29-43   43-53   53-64  64-132 132-201     0-5    5-15   15-29   29-43   43-53   53-64  64-132 132-201     0-5    5-15   15-29   29-43   43-53   53-64  64-132 132-201
@YEAR DOY   DAS   N2OEC    N2EC    NOEC   CO2TC    NDNC    NITC   N2ODC   N2ONC   N2FLC   NOFLC   N2OED    N2ED    NOED   CO2TD    NDND   NITRD   N2ODD   N2OND   N2FLD   NOFLD   NDN1D   NDN2D   NDN3D   NDN4D   NDN5D   NDN6D   NDN7D   NDN8D   NIT1D   NIT2D   NIT3D   NIT4D   NIT5D   NIT6D   NIT7D   NIT8D   N2O1D   N2O2D   N2O3D   N2O4D   N2O5D   N2O6D   N2O7D   N2O8D   N2F1D   N2F2D   N2F3D   N2F4D   N2F5D   N2F6D   N2F7D   N2F8D   NOF1D   NOF2D   NOF3D   NOF4D   NOF5D   NOF6D   NOF7D   NOF8D   
 2020 106     1    0.00    0.00    0.00       6    0.00     0.6   0.000   0.001   0.000   0.001     0.0     0.0     0.0    5549     0.0     644    0.00    0.64    0.00    0.79     0.0     0.0     0.0     0.0     0.0     0.0     0.0     0.0     16.     32.     43.     43.     30.     33.    217.    229.     0.0     0.0     0.0     0.0     0.0     0.0     0.2     0.2     0.0     0.0     0.0     0.0     0.0     0.0     0.0     0.0     0.0     0.0     0.0     0.0     0.0     0.0     0.3     0.3
 2020 107     2    0.00    0.00    0.00      11    0.00     1.3   0.000   0.001   0.000   0.002     0.0     0.0     0.0    5549     0.0     619    0.00    0.62    0.00    0.72     0.0     0.0     0.0     0.0     0.0     0.0     0.0     0.0     22.     44.     52.     51.     29.     32.    190.    199.     0.0     0.0     0.1     0.1     0.0     0.0     0.2     0.2     0.0     0.0     0.0     0.0     0.0     0.0     0.0     0.0     0.0     0.0     0.0     0.0     0.0     0.0     0.3     0.3
 2020 108     3    0.00    0.00    0.00      17    0.00     1.9   0.000   0.002   0.000   0.002     0.0     0.0     0.0    5479     0.0     596    0.00    0.60    0.00    0.67     0.0     0.0     0.0     0.0     0.0     0.0     0.0     0.0     26.     52.     57.     57.     27.     30.    169.    177.     0.0     0.1     0.1     0.1     0.0     0.0     0.2     0.2     0.0     0.0     0.0     0.0     0.0     0.0     0.0     0.0     0.0     0.0     0.0     0.0     0.0     0.0     0.2     0.3
 2020 109     4    0.00    0.00    0.00      22    0.00     2.4   0.000   0.002   0.000   0.003     0.0     0.0     0.0    5230     0.0     562    0.00    0.56    0.00    0.62     0.0     0.0     0.0     0.0     0.0     0.0     0.0     0.0     28.     56.     59.     59.     26.     28.    149.    157.     0.0     0.1     0.1     0.1     0.0     0.0     0.1     0.2     0.0     0.0     0.0     0.0     0.0     0.0     0.0     0.0     0.0     0.0     0.0     0.0     0.0     0.0     0.2     0.2
 2020 110     5    0.00    0.00    0.00      27    0.00     3.0   0.000   0.003   0.000   0.003     0.0     0.0     0.0    5534     0.0     577    0.00    0.58    0.00    0.62     0.0     0.0     0.0     0.0     0.0     0.0     0.0     0.0     32.     63.     66.     66.     26.     29.    144.    151.     0.0     0.1     0.1     0.1     0.0     0.0     0.1     0.2     0.0     0.0     0.0     0.0     0.0     0.0     0.0     0.0     0.0     0.0     0.0     0.0     0.0     0.0     0.2     0.2
 2020 111     6    0.00    0.00    0.00      33    0.00     3.6   0.000   0.004   0.000   0.004     0.0     0.0     0.0    5849     0.0     598    0.00    0.60    0.00    0.62     0.0     0.0     0.0     0.0     0.0     0.0     0.0     0.0     36.     71.     73.     72.     27.     30.    142.    147.     0.0     0.1     0.1     0.1     0.0     0.0     0.1     0.1     0.0     0.0     0.0     0.0     0.0     0.0     0.0     0.0     0.0     0.0     0.0     0.0     0.0     0.0     0.2     0.2
 2020 112     7    0.00    0.00    0.00      39    0.00     4.2   0.000   0.004   0.000   0.006     0.0     0.0     0.0    6286     0.0     635    0.00    0.64    0.00    1.62     0.0     0.0     0.0     0.0     0.0     0.0     0.0     0.0     41.     81.     82.     81.     29.     32.    144.    147.     0.0     0.1     0.1     0.1     0.0     0.0     0.1     0.1     0.0     0.0     0.0     0.0     0.0     0.0     0.0     0.0     0.1     0.1     0.1     0.1     0.1     0.1     0.5     0.5
 2020 113     8    0.00    0.00    0.00      46    0.00     4.9   0.000   0.005   0.000   0.008     0.0     0.0     0.0    6411     0.0     646    0.00    0.65    0.00    2.43     0.0     0.0     0.0     0.0     0.0     0.0     0.0     0.0     43.     86.     86.     85.     29.     32.    141.    143.     0.0     0.1     0.1     0.1     0.0     0.0     0.1     0.1     0.0     0.0     0.0     0.0     0.0     0.0     0.0     0.0     0.1     0.2     0.2     0.2     0.1     0.1     0.8     0.8
 2020 114     9    0.00    0.00    0.00      53    0.00     5.6   0.000   0.006   0.000   0.010     0.0     0.0     0.0    6886     0.0     693    0.00    0.69    0.00    2.08     0.0     0.0     0.0     0.0     0.0     0.0     0.0     0.0     49.     96.     96.     94.     32.     34.    146.    146.     0.0     0.1     0.1     0.1     0.0     0.0     0.1     0.1     0.0     0.0     0.0     0.0     0.0     0.0     0.0     0.0     0.1     0.2     0.2     0.1     0.1     0.1     0.7     0.7
 2020 115    10    0.00    0.00    0.00      60    0.00     6.3   0.000   0.006   0.000   0.012     0.0     0.0     0.1    7222     0.0     729    0.00    0.73    0.00    1.76     0.0     0.0     0.0     0.0     0.0     0.0     0.0     0.0     53.    104.    103.    101.     33.     36.    150.    148.     0.1     0.1     0.1     0.1     0.0     0.0     0.1     0.1     0.0     0.0     0.0     0.0     0.0     0.0     0.0     0.0     0.1     0.1     0.1     0.1     0.1     0.1     0.5     0.5
 2020 116    11    0.00    0.00    0.00      67    0.00     7.0   0.000   0.007   0.000   0.013     0.1     0.0     0.1    6944     0.0     697    0.00    0.70    0.00    1.36     0.0     0.0     0.0     0.0     0.0     0.0     0.0     0.0     51.    100.     99.     97.     32.     34.    142.    142.     0.1     0.1     0.1     0.1     0.0     0.0     0.1     0.1     0.0     0.0     0.0     0.0     0.0     0.0     0.0     0.0     0.1     0.1     0.1     0.1     0.1     0.1     0.4     0.4
 2020 117    12    0.00    0.00    0.00      74    0.00     7.7   0.000   0.008   0.000   0.014     0.1     0.0     0.1    6702     0.0     671    0.00    0.67    0.00    1.07     0.0     0.0     0.0     0.0     0.0     0.0     0.0     0.0     49.     96.     95.     93.     30.     33.    137.    138.     0.0     0.1     0.1     0.1     0.0     0.0     0.1     0.1     0.0     0.0     0.0     0.0     0.0     0.0     0.0     0.0     0.1     0.1     0.1     0.1     0.0     0.1     0.3     0.3
 2020 118    13    0.00    0.00    0.00      81    0.00     8.4   0.000   0.008   0.000   0.015     0.1     0.0     0.1    7351     0.0     741    0.00    0.74    0.00    0.95     0.0     0.0     0.0     0.0     0.0     0.0     0.0     0.0     56.    110.    107.    105.     34.     37.    148.    146.     0.1     0.1     0.1     0.1     0.0     0.0     0.1     0.1     0.0     0.0     0.0     0.0     0.0     0.0     0.0     0.0     0.1     0.1     0.1     0.1     0.0     0.0     0.3     0.3
 2020 119    14    0.00    0.00    0.00      89    0.00     9.2   0.000   0.009   0.000   0.016     0.1     0.0     0.1    8045     0.0     818    0.00    0.82    0.00    0.85     0.0     0.0     0.0     0.0     0.0     0.0     0.0     0.0     60.    125.    122.    118.     38.     41.    161.    155.     0.1     0.1     0.1     0.1     0.0     0.0     0.2     0.2     0.0     0.0     0.0     0.0     0.0     0.0     0.0     0.0     0.1     0.1     0.1     0.1     0.0     0.0     0.3     0.2
 2020 120    15    0.00    0.00    0.00      97    0.00    10.1   0.000   0.010   0.000   0.017     0.1     0.0     0.1    8233     0.0     832    0.00    0.83    0.00    0.80     0.0     0.0     0.0     0.0     0.0     0.0     0.0     0.0     58.    128.    125.    121.     38.     41.    163.    157.     0.1     0.1     0.1     0.1     0.0     0.0     0.2     0.2     0.0     0.0     0.0     0.0     0.0     0.0     0.0     0.0     0.0     0.1     0.1     0.1     0.0     0.0     0.2     0.2
 2020 121    16    0.00    0.00    0.00     106    0.00    10.9   0.000   0.011   0.000   0.018     0.1     0.0     0.1    8754     0.0     892    0.00    0.89    0.00    0.85     0.0     0.0     0.0     0.0     0.0     0.0     0.0     0.0     62.    139.    135.    131.     41.     45.    174.    164.     0.1     0.1     0.1     0.1     0.0     0.0     0.2     0.2     0.0     0.0     0.0     0.0     0.0     0.0     0.0     0.0     0.1     0.1     0.1     0.1     0.0     0.0     0.3     0.2
 2020 122    17    0.00    0.00    0.00     116    0.00    11.9   0.000   0.012   0.000   0.019     0.1     0.0     0.1    9566     0.0     995    0.00    1.00    0.00    0.94     0.0     0.0     0.0     0.0     0.0     0.0     0.0     0.0     71.    159.    154.    148.     46.     50.    191.    177.     0.1     0.2     0.2     0.1     0.0     0.0     0.2     0.2     0.0     0.0     0.0     0.0     0.0     0.0     0.0     0.0     0.1     0.1     0.1     0.1     0.0     0.0     0.3     0.3
 2020 123    18    0.00    0.00    0.00     126    0.00    13.0   0.000   0.013   0.000   0.020     0.1     0.0     0.1   10089     0.0    1050    0.00    1.05    0.00    1.00     0.0     0.0     0.0     0.0     0.0     0.0     0.0     0.0     75.    168.    163.    157.     49.     53.    201.    184.     0.1     0.2     0.2     0.2     0.0     0.1     0.2     0.2     0.0     0.0     0.0     0.0     0.0     0.0     0.0     0.0     0.1     0.1     0.1     0.1     0.0     0.1     0.3     0.3
 2020 124    19    0.00    0.00    0.00     136    0.00    14.0   0.000   0.014   0.000   0.021     0.1     0.0     0.1    9900     0.0     994    0.00    0.99    0.00    0.95     0.0     0.0     0.0     0.0     0.0     0.0     0.0     0.0     70.    156.    152.    147.     46.     50.    193.    179.     0.1     0.2     0.2     0.1     0.0     0.0     0.2     0.2     0.0     0.0     0.0     0.0     0.0     0.0     0.0     0.0     0.1     0.1     0.1     0.1     0.0     0.0     0.3     0.3
 2020 125    20    0.00    0.00    0.00     145    0.00    15.0   0.000   0.015   0.000   0.022     0.1     0.0     0.1    9815     0.0     975    0.00    0.97    0.00    0.93     0.0     0.0     0.0     0.0     0.0     0.0     0.0     0.0     69.    153.    149.    144.     45.     49.    190.    176.     0.1     0.2     0.1     0.1     0.0     0.0     0.2     0.2     0.0     0.0     0.0     0.0     0.0     0.0     0.0     0.0     0.1     0.1     0.1     0.1     0.0     0.0     0.3     0.3
 2020 126    21    0.00    0.00    0.00     155    0.00    16.0   0.000   0.016   0.000   0.023     0.2     0.0     0.1    9951     0.0     993    0.00    0.99    0.00    0.95     0.0     0.0     0.0     0.0     0.0     0.0     0.0     0.0     70.    157.    152.    147.     46.     50.    192.    178.     0.1     0.2     0.2     0.1     0.0     0.0     0.2     0.2     0.0     0.0     0.0     0.0     0.0     0.0     0.0     0.0     0.1     0.1     0.1     0.1     0.0     0.0     0.3     0.3
 2020 127    22    0.00    0.00    0.00     165    0.00    16.9   0.000   0.017   0.000   0.023     0.2     0.0     0.2    9582     0.0     936    0.00    0.94    0.00    0.90     0.0     0.0     0.0     0.0     0.0     0.0     0.0     0.0     65.    146.    142.    138.     44.     47.    183.    172.     0.1     0.1     0.1     0.1     0.0     0.0     0.2     0.2     0.0     0.0     0.0     0.0     0.0     0.0     0.0     0.0     0.1     0.1     0.1     0.1     0.0     0.0     0.3     0.3
 2020 128    23    0.00    0.00    0.00     174    0.00    17.7   0.000   0.018   0.000   0.024     0.2     0.0     0.2    8802     0.0     838    0.00    0.84    0.00    0.81     0.0     0.0     0.0     0.0     0.0     0.0     0.0     0.0     56.    128.    125.    122.     39.     42.    166.    160.     0.1     0.1     0.1     0.1     0.0     0.0     0.2     0.2     0.0     0.0     0.0     0.0     0.0     0.0     0.0     0.0     0.0     0.1     0.1     0.1     0.0     0.0     0.2     0.2
 2020 129    24    0.00    0.00    0.00     183    0.00    18.6   0.000   0.019   0.000   0.025     0.2     0.0     0.2    8828     0.0     855    0.00    0.86    0.00    0.83     0.0     0.0     0.0     0.0     0.0     0.0     0.0     0.0     57.    132.    129.    126.     40.     43.    169.    161.     0.1     0.1     0.1     0.1     0.0     0.0     0.2     0.2     0.0     0.0     0.0     0.0     0.0     0.0     0.0     0.0     0.0     0.1     0.1     0.1     0.0     0.0     0.2     0.2
 2020 130    25    0.00    0.00    0.00     191    0.00    19.4   0.000   0.019   0.000   0.026     0.2     0.0     0.2    8211     0.0     786    0.00    0.79    0.00    0.77     0.0     0.0     0.0     0.0     0.0     0.0     0.0     0.0     51.    119.    117.    114.     36.     39.    157.    152.     0.1     0.1     0.1     0.1     0.0     0.0     0.2     0.2     0.0     0.0     0.0     0.0     0.0     0.0     0.0     0.0     0.0     0.1     0.1     0.1     0.0     0.0     0.2     0.2
 2020 131    26    0.00    0.00    0.00     199    0.00    20.1   0.000   0.020   0.000   0.027     0.2     0.0     0.2    7883     0.0     757    0.00    0.76    0.00    0.74     0.0     0.0     0.0     0.0     0.0     0.0     0.0     0.0     48.    114.    112.    110.     35.     38.    151.    148.     0.0     0.1     0.1     0.1     0.0     0.0     0.2     0.1     0.0     0.0     0.0     0.0     0.0     0.0     0.0     0.0     0.0     0.1     0.1     0.1     0.0     0.0     0.2     0.2
 2020 132    27    0.00    0.00    0.00     206    0.00    20.8   0.000   0.021   0.000   0.029     0.2     0.0     0.2    7397     0.0     710    0.00    0.71    0.00    2.62     0.0     0.0     0.0     0.0     0.0     0.0     0.0     0.0     44.    106.    104.    103.     33.     36.    143.    142.     0.0     0.1     0.1     0.1     0.0     0.0     0.1     0.1     0.0     0.0     0.0     0.0     0.0     0.0     0.0     0.0     0.1     0.2     0.2     0.2     0.1     0.1     0.8     0.8
 2020 133    28    0.00    0.00    0.00     212    0.00    21.5   0.000   0.021   0.000   0.031     0.2     0.0     0.2    6347     0.0     647    0.00    0.65    0.00    1.93     0.0     0.0     0.0     0.0     0.0     0.0     0.0     0.0     73.     88.     87.     87.     28.     31.    126.    128.     0.1     0.1     0.1     0.1     0.0     0.0     0.1     0.1     0.0     0.0     0.0     0.0     0.0     0.0     0.0     0.0     0.2     0.2     0.1     0.1     0.1     0.1     0.6     0.6
 2020 134    29    0.00    0.00    0.00     217    0.00    22.0   0.000   0.022   0.000   0.032     0.2     0.0     0.2    4873     0.0     511    0.00    0.51    0.00    1.27     0.0     0.0     0.0     0.0     0.0     0.0     0.0     0.0     49.     67.     67.     68.     22.     24.    104.    111.     0.0     0.1     0.1     0.1     0.0     0.0     0.1     0.1     0.0     0.0     0.0     0.0     0.0     0.0     0.0     0.0     0.1     0.1     0.1     0.1     0.1     0.1     0.4     0.4
 2020 135    30    0.00    0.00    0.00     222    0.00    22.5   0.000   0.023   0.000   0.033     0.2     0.0     0.2    4947     0.0     510    0.00    0.51    0.00    1.03     0.0     0.0     0.0     0.0     0.0     0.0     0.0     0.0     44.     68.     68.     68.     22.     25.    104.    111.     0.0     0.1     0.1     0.1     0.0     0.0     0.1     0.1     0.0     0.0     0.0     0.0     0.0     0.0     0.0     0.0     0.1     0.1     0.1     0.1     0.0     0.0     0.3     0.3
 2020 136    31    0.00    0.00    0.00     227    0.00    23.0   0.000   0.023   0.000   0.034     0.2     0.0     0.3    5210     0.0     525    0.00    0.53    0.00    0.86     0.0     0.0     0.0     0.0     0.0     0.0     0.0     0.0     42.     71.     71.     71.     23.     25.    108.    114.     0.0     0.1     0.1     0.1     0.0     0.0     0.1     0.1     0.0     0.0     0.0     0.0     0.0     0.0     0.0     0.0     0.1     0.1     0.1     0.1     0.0     0.0     0.3     0.3
 2020 137    32    0.00    0.00    0.00     233    0.00    23.6   0.000   0.024   0.000   0.035     0.3     0.0     0.3    5747     0.0     575    0.00    0.57    0.00    0.76     0.0     0.0     0.0     0.0     0.0     0.0     0.0     0.0     49.     79.     79.     78.     25.     28.    116.    120.     0.0     0.1     0.1     0.1     0.0     0.0     0.1     0.1     0.0     0.0     0.0     0.0     0.0     0.0     0.0     0.0     0.1     0.1     0.1     0.1     0.0     0.0     0.2     0.2
 2020 138    33    0.00    0.00    0.00     240    0.00    24.3   0.000   0.024   0.000   0.036     0.2     0.0     0.2    6929     0.0     700    0.00    0.70    0.00    0.72     0.0     0.0     0.0     0.0     0.0     0.0     0.0     0.0     69.    100.     98.     97.     31.     34.    136.    136.     0.1     0.1     0.1     0.1     0.0     0.0     0.1     0.1     0.0     0.0     0.0     0.0     0.0     0.0     0.0     0.0     0.0     0.1     0.1     0.1     0.0     0.0     0.2     0.2
 2020 139    34    0.00    0.00    0.00     248    0.00    25.2   0.000   0.025   0.000   0.037     0.3     0.0     0.3    8311     0.0     863    0.00    0.86    0.00    0.82     0.0     0.0     0.0     0.0     0.0     0.0     0.0     0.0     82.    131.    127.    123.     39.     42.    163.    156.     0.1     0.1     0.1     0.1     0.0     0.0     0.2     0.2     0.0     0.0     0.0     0.0     0.0     0.0     0.0     0.0     0.1     0.1     0.1     0.1     0.0     0.0     0.2     0.2
 2020 140    35    0.00    0.00    0.00     257    0.00    26.1   0.000   0.026   0.000   0.038     0.3     0.0     0.3    8940     0.0     934    0.00    0.93    0.00    0.89     0.0     0.0     0.0     0.0     0.0     0.0     0.0     0.0     84.    145.    140.    136.     43.     46.    177.    165.     0.1     0.1     0.1     0.1     0.0     0.0     0.2     0.2     0.0     0.0     0.0     0.0     0.0     0.0     0.0     0.0     0.1     0.1     0.1     0.1     0.0     0.0     0.3     0.2
 2020 141    36    0.00    0.00    0.00     267    0.00    27.1   0.000   0.027   0.000   0.038     0.3     0.0     0.3    9187     0.0     950    0.00    0.95    0.00    0.91     0.0     0.0     0.0     0.0     0.0     0.0     0.0     0.0     80.    147.    143.    139.     44.     47.    181.    169.     0.1     0.1     0.1     0.1     0.0     0.0     0.2     0.2     0.0     0.0     0.0     0.0     0.0     0.0     0.0     0.0     0.1     0.1     0.1     0.1     0.0     0.0     0.3     0.2
 2020 142    37    0.00    0.00    0.00     276    0.00    28.0   0.000   0.028   0.000   0.039     0.3     0.0     0.3    9178     0.0     933    0.00    0.93    0.00    0.89     0.0     0.0     0.0     0.0     0.0     0.0     0.0     0.0     76.    144.    140.    136.     43.     46.    180.    168.     0.1     0.1     0.1     0.1     0.0     0.0     0.2     0.2     0.0     0.0     0.0     0.0     0.0     0.0     0.0     0.0     0.1     0.1     0.1     0.1     0.0     0.0     0.3     0.2
 2020 143    38    0.01    0.00    0.01     285    0.00    28.8   0.000   0.029   0.000   0.040     0.2     0.0     0.2    9302     0.0     811    0.00    0.81    0.00    0.79     0.0     0.0     0.0     0.0     0.0     0.0     0.0     0.0     29.     61.    142.    138.     43.     47.    182.    170.     0.0     0.1     0.1     0.1     0.0     0.0     0.2     0.2     0.0     0.0     0.0     0.0     0.0     0.0     0.0     0.0     0.0     0.0     0.1     0.1     0.0     0.0     0.3     0.3
 2020 144    39    0.01    0.00    0.01     294    0.00    29.8   0.000   0.030   0.000   0.041     0.2     0.0     0.2    9316     0.0    1009    0.00    1.01    0.00    0.90     0.0     0.0     0.0     0.0     0.0     0.0     0.0     0.0     99.    189.    141.    137.     43.     47.    182.    170.     0.1     0.2     0.1     0.1     0.0     0.0     0.2     0.2     0.0     0.0     0.0     0.0     0.0     0.0     0.0     0.0     0.1     0.1     0.1     0.1     0.0     0.0     0.3     0.3
 2020 145    40    0.01    0.00    0.01     304    0.00    30.8   0.000   0.031   0.000   0.042     0.3     0.0     0.3    9629     0.0    1015    0.00    1.02    0.00    0.92     0.0     0.0     0.0     0.0     0.0     0.0     0.0     0.0     90.    175.    148.    144.     45.     49.    189.    175.     0.1     0.2     0.1     0.1     0.0     0.0     0.2     0.2     0.0     0.0     0.0     0.0     0.0     0.0     0.0     0.0     0.0     0.1     0.1     0.1     0.0     0.0     0.3     0.3
 2020 146    41    0.01    0.00    0.01     313    0.00    31.8   0.000   0.032   0.000   0.043     0.3     0.0     0.3    9533     0.0     972    0.00    0.97    0.00    0.89     0.0     0.0     0.0     0.0     0.0     0.0     0.0     0.0     80.    157.    144.    140.     44.     48.    186.    173.     0.1     0.2     0.1     0.1     0.0     0.0     0.2     0.2     0.0     0.0     0.0     0.0     0.0     0.0     0.0     0.0     0.0     0.1     0.1     0.1     0.0     0.0     0.3     0.3
 2020 147    42    0.01    0.00    0.01     323    0.00    32.7   0.000   0.033   0.000   0.044     0.3     0.0     0.3    9041     0.0     893    0.00    0.89    0.00    0.83     0.0     0.0     0.0     0.0     0.0     0.0     0.0     0.0     70.    139.    132.    129.     41.     44.    174.    165.     0.1     0.1     0.1     0.1     0.0     0.0     0.2     0.2     0.0     0.0     0.0     0.0     0.0     0.0     0.0     0.0     0.0     0.1     0.1     0.1     0.0     0.0     0.3     0.2
 2020 148    43    0.01    0.00    0.01     331    0.00    33.6   0.000   0.034   0.000   0.044     0.3     0.0     0.3    8928     0.0     883    0.00    0.88    0.00    0.82     0.0     0.0     0.0     0.0     0.0     0.0     0.0     0.0     69.    136.    131.    128.     40.     44.    172.    163.     0.1     0.1     0.1     0.1     0.0     0.0     0.2     0.2     0.0     0.0     0.0     0.0     0.0     0.0     0.0     0.0     0.0     0.1     0.1     0.1     0.0     0.0     0.3     0.2
 2020 149    44    0.01    0.00    0.01     340    0.00    34.3   0.000   0.034   0.000   0.045     0.1     0.0     0.1    8758     0.0     724    0.00    0.72    0.00    0.71     0.0     0.0     0.0     0.0     0.0     0.0     0.0     0.0     18.     39.    128.    125.     40.     43.    169.    161.     0.0     0.0     0.1     0.1     0.0     0.0     0.2     0.2     0.0     0.0     0.0     0.0     0.0     0.0     0.0     0.0     0.0     0.0     0.1     0.1     0.0     0.0     0.3     0.2
 2020 150    45    0.01    0.00    0.01     349    0.00    35.2   0.000   0.035   0.000   0.046     0.3     0.0     0.3    8435     0.0     892    0.00    0.89    0.00    0.80     0.0     0.0     0.0     0.0     0.0     0.0     0.0     0.0     85.    166.    122.    120.     38.     41.    163.    157.     0.1     0.2     0.1     0.1     0.0     0.0     0.2     0.2     0.0     0.0     0.0     0.0     0.0     0.0     0.0     0.0     0.0     0.1     0.1     0.1     0.0     0.0     0.2     0.2
 2020 151    46    0.01    0.00    0.01     357    0.00    36.1   0.000   0.036   0.000   0.047     0.3     0.0     0.3    8732     0.0     910    0.00    0.91    0.00    0.83     0.0     0.0     0.0     0.0     0.0     0.0     0.0     0.0     80.    157.    130.    127.     40.     43.    171.    162.     0.1     0.2     0.1     0.1     0.0     0.0     0.2     0.2     0.0     0.0     0.0     0.0     0.0     0.0     0.0     0.0     0.0     0.1     0.1     0.1     0.0     0.0     0.3     0.2
 2020 152    47    0.01    0.00    0.01     367    0.00    37.2   0.000   0.037   0.000   0.048     0.3     0.0     0.3    9946     0.0    1073    0.00    1.07    0.00    0.97     0.0     0.0     0.0     0.0     0.0     0.0     0.0     0.0     93.    182.    160.    155.     49.     52.    200.    182.     0.1     0.2     0.2     0.2     0.0     0.1     0.2     0.2     0.0     0.0     0.0     0.0     0.0     0.0     0.0     0.0     0.0     0.1     0.1     0.1     0.0     0.1     0.3     0.3
 2020 153    48    0.01    0.00    0.01     378    0.00    38.3   0.000   0.038   0.000   0.049     0.4     0.0     0.4   10729     0.0    1157    0.00    1.16    0.00    1.05     0.0     0.0     0.0     0.0     0.0     0.0     0.0     0.0     97.    190.    177.    170.     53.     57.    217.    195.     0.1     0.2     0.2     0.2     0.1     0.1     0.2     0.2     0.0     0.0     0.0     0.0     0.0     0.0     0.0     0.0     0.1     0.1     0.1     0.1     0.1     0.1     0.3     0.3
 2020 154    49    0.01    0.00    0.01     390    0.00    39.6   0.000   0.040   0.000   0.050     0.4     0.0     0.4   11651     0.0    1266    0.00    1.27    0.00    1.14     0.0     0.0     0.0     0.0     0.0     0.0     0.0     0.0    105.    206.    196.    189.     59.     63.    238.    210.     0.1     0.2     0.2     0.2     0.1     0.1     0.2     0.2     0.0     0.0     0.0     0.0     0.0     0.0     0.0     0.0     0.1     0.1     0.1     0.1     0.1     0.1     0.4     0.3
 2020 155    50    0.01    0.00    0.01     402    0.00    40.9   0.000   0.041   0.000   0.051     0.4     0.0     0.4   12389     0.0    1330    0.00    1.33    0.00    1.21     0.0     0.0     0.0     0.0     0.0     0.0     0.0     0.0    109.    214.    207.    199.     62.     67.    251.    221.     0.1     0.2     0.2     0.2     0.1     0.1     0.3     0.2     0.0     0.0     0.0     0.0     0.0     0.0     0.0     0.0     0.1     0.1     0.1     0.1     0.1     0.1     0.4     0.3
 2020 156    51    0.01    0.00    0.01     415    0.00    42.3   0.000   0.042   0.000   0.052     0.5     0.0     0.4   12767     0.0    1328    0.00    1.33    0.00    1.22     0.0     0.0     0.0     0.0     0.0     0.0     0.0     0.0    106.    211.    205.    199.     62.     67.    253.    224.     0.1     0.2     0.2     0.2     0.1     0.1     0.3     0.2     0.0     0.0     0.0     0.0     0.0     0.0     0.0     0.0     0.1     0.1     0.1     0.1     0.1     0.1     0.4     0.3
 2020 157    52    0.01    0.00    0.01     428    0.00    43.5   0.000   0.044   0.000   0.054     0.5     0.0     0.5   12811     0.0    1294    0.00    1.29    0.00    1.19     0.0     0.0     0.0     0.0     0.0     0.0     0.0     0.0    104.    205.    199.    193.     61.     65.    248.    221.     0.1     0.2     0.2     0.2     0.1     0.1     0.2     0.2     0.0     0.0     0.0     0.0     0.0     0.0     0.0     0.0     0.1     0.1     0.1     0.1     0.1     0.1     0.4     0.3
 2020 158    53    0.01    0.00    0.01     441    0.00    44.9   0.000   0.045   0.000   0.055     0.5     0.0     0.5   13100     0.0    1328    0.00    1.33    0.00    1.22     0.0     0.0     0.0     0.0     0.0     0.0     0.0     0.0    104.    208.    207.    200.     63.     67.    254.    225.     0.1     0.2     0.2     0.2     0.1     0.1     0.3     0.2     0.0     0.0     0.0     0.0     0.0     0.0     0.0     0.0     0.1     0.1     0.1     0.1     0.1     0.1     0.4     0.3
 2020 159    54    0.01    0.00    0.01     454    0.00    46.0   0.000   0.046   0.000   0.056     0.3     0.0     0.3   13247     0.0    1146    0.00    1.15    0.00    1.09     0.0     0.0     0.0     0.0     0.0     0.0     0.0     0.0     46.     79.    208.    201.     63.     67.    256.    227.     0.0     0.1     0.2     0.2     0.1     0.1     0.3     0.2     0.0     0.0     0.0     0.0     0.0     0.0     0.0     0.0     0.0     0.0     0.1     0.1     0.1     0.1     0.4     0.3
 2020 160    55    0.01    0.00    0.01     467    0.00    47.3   0.000   0.047   0.000   0.057     0.4     0.0     0.4   13232     0.0    1327    0.00    1.33    0.00    1.20     0.0     0.0     0.0     0.0     0.0     0.0     0.0     0.0    166.    152.    204.    197.     62.     67.    253.    226.     0.2     0.2     0.2     0.2     0.1     0.1     0.3     0.2     0.0     0.0     0.0     0.0     0.0     0.0     0.0     0.0     0.1     0.1     0.1     0.1     0.1     0.1     0.4     0.3
 2020 161    56    0.01    0.00    0.01     481    0.00    48.9   0.000   0.049   0.000   0.062     0.4     0.0     0.4   13408     0.0    1540    0.00    1.54    0.00    4.97     0.0     0.0     0.0     0.0     0.0     0.0     0.0     0.0    106.    401.    207.    204.     64.     69.    259.    230.     0.1     0.4     0.2     0.2     0.1     0.1     0.3     0.2     0.0     0.0     0.0     0.0     0.0     0.0     0.0     0.0     0.2     0.8     0.4     0.4     0.2     0.3     1.4     1.3
 2020 162    57    0.01    0.00    0.01     493    0.00    49.9   0.000   0.050   0.000   0.065     0.4     0.0     0.4   12490     0.0    1009    0.00    1.01    0.00    2.97     0.0     0.0     0.0     0.0     0.0     0.0     0.0     0.0     41.     66.    182.    173.     54.     59.    227.    208.     0.0     0.1     0.2     0.2     0.1     0.1     0.2     0.2     0.0     0.0     0.0     0.0     0.0     0.0     0.0     0.0     0.1     0.1     0.2     0.3     0.2     0.2     1.0     0.9
 2020 163    58    0.01    0.00    0.01     505    0.00    51.0   0.000   0.051   0.000   0.068     0.5     0.0     0.5   11642     0.0    1087    0.00    1.09    0.00    2.47     0.0     0.0     0.0     0.0     0.0     0.0     0.0     0.0    136.    114.    165.    160.     50.     54.    211.    195.     0.1     0.1     0.2     0.2     0.1     0.1     0.2     0.2     0.0     0.0     0.0     0.0     0.0     0.0     0.0     0.0     0.2     0.1     0.2     0.2     0.1     0.1     0.8     0.7
 2020 164    59    0.01    0.00    0.01     516    0.00    52.2   0.000   0.052   0.000   0.070     0.5     0.0     0.5   11365     0.0    1247    0.00    1.25    0.00    2.18     0.0     0.0     0.0     0.0     0.0     0.0     0.0     0.0     96.    312.    167.    162.     51.     55.    211.    194.     0.1     0.3     0.2     0.2     0.1     0.1     0.2     0.2     0.0     0.0     0.0     0.0     0.0     0.0     0.0     0.0     0.1     0.3     0.1     0.2     0.1     0.1     0.6     0.6
 2020 165    60    0.01    0.00    0.01     527    0.00    53.4   0.000   0.053   0.000   0.071     0.5     0.0     0.5   11315     0.0    1151    0.00    1.15    0.00    1.70     0.0     0.0     0.0     0.0     0.0     0.0     0.0     0.0     91.    209.    170.    165.     52.     56.    214.    195.     0.1     0.2     0.2     0.2     0.1     0.1     0.2     0.2     0.0     0.0     0.0     0.0     0.0     0.0     0.0     0.0     0.1     0.2     0.1     0.1     0.1     0.1     0.5     0.5
 2020 166    61    0.01    0.00    0.01     539    0.00    54.5   0.000   0.055   0.000   0.073     0.5     0.0     0.5   11186     0.0    1121    0.00    1.12    0.00    1.36     0.0     0.0     0.0     0.0     0.0     0.0     0.0     0.0     89.    182.    169.    164.     52.     56.    214.    195.     0.1     0.2     0.2     0.2     0.1     0.1     0.2     0.2     0.0     0.0     0.0     0.0     0.0     0.0     0.0     0.0     0.1     0.1     0.1     0.1     0.1     0.1     0.4     0.4
 2020 167    62    0.01    0.00    0.01     551    0.00    55.8   0.000   0.056   0.000   0.074     0.6     0.0     0.6   12018     0.0    1286    0.00    1.29    0.00    1.26     0.0     0.0     0.0     0.0     0.0     0.0     0.0     0.0    102.    210.    200.    193.     60.     64.    243.    215.     0.1     0.2     0.2     0.2     0.1     0.1     0.2     0.2     0.0     0.0     0.0     0.0     0.0     0.0     0.0     0.0     0.1     0.1     0.1     0.1     0.1     0.1     0.4     0.3
 2020 168    63    0.01    0.00    0.01     562    0.00    56.9   0.000   0.057   0.000   0.075     0.3     0.0     0.3   11528     0.0    1136    0.00    1.14    0.00    1.10     0.0     0.0     0.0     0.0     0.0     0.0     0.0     0.0     30.     73.    212.    204.     64.     68.    258.    226.     0.0     0.1     0.2     0.2     0.1     0.1     0.3     0.2     0.0     0.0     0.0     0.0     0.0     0.0     0.0     0.0     0.0     0.0     0.1     0.1     0.1     0.1     0.4     0.3
 2020 169    64    0.02    0.00    0.01     574    0.00    58.3   0.000   0.058   0.000   0.076     0.5     0.0     0.6   11655     0.0    1410    0.00    1.41    0.00    1.26     0.0     0.0     0.0     0.0     0.0     0.0     0.0     0.0    165.    353.    203.     78.     62.     67.    255.    227.     0.2     0.4     0.2     0.1     0.1     0.1     0.3     0.2     0.0     0.0     0.0     0.0     0.0     0.0     0.0     0.0     0.1     0.2     0.1     0.0     0.1     0.1     0.4     0.3
 2020 170    65    0.02    0.00    0.02     586    0.00    59.5   0.000   0.060   0.000   0.077     0.6     0.0     0.6   11715     0.0    1180    0.00    1.18    0.00    1.13     0.0     0.0     0.0     0.0     0.0     0.0     0.0     0.0    105.    206.    203.     60.     62.     66.    252.    225.     0.1     0.2     0.2     0.1     0.1     0.1     0.3     0.2     0.0     0.0     0.0     0.0     0.0     0.0     0.0     0.0     0.1     0.1     0.1     0.0     0.1     0.1     0.4     0.3
 2020 171    66    0.02    0.00    0.02     597    0.00    60.6   0.000   0.061   0.000   0.079     0.6     0.0     0.6   11218     0.0    1109    0.00    1.11    0.00    1.07     0.0     0.0     0.0     0.0     0.0     0.0     0.0     0.0    103.    196.    187.     54.     57.     62.    236.    214.     0.1     0.2     0.2     0.1     0.1     0.1     0.2     0.2     0.0     0.0     0.0     0.0     0.0     0.0     0.0     0.0     0.1     0.1     0.1     0.0     0.1     0.1     0.4     0.3
 2020 172    67    0.02    0.00    0.02     607    0.00    61.6   0.000   0.062   0.000   0.080     0.6     0.0     0.7   10402     0.0     990    0.00    0.99    0.00    0.97     0.0     0.0     0.0     0.0     0.0     0.0     0.0     0.0     80.    172.    168.     48.     52.     56.    216.    199.     0.1     0.2     0.2     0.0     0.1     0.1     0.2     0.2     0.0     0.0     0.0     0.0     0.0     0.0     0.0     0.0     0.0     0.1     0.1     0.0     0.1     0.1     0.3     0.3
 2020 173    68    0.02    0.00    0.02     617    0.00    62.6   0.000   0.063   0.000   0.080     0.7     0.0     0.7   10003     0.0     978    0.00    0.98    0.00    0.96     0.0     0.0     0.0     0.0     0.0     0.0     0.0     0.0     75.    172.    168.     48.     51.     55.    213.    196.     0.1     0.2     0.2     0.0     0.1     0.1     0.2     0.2     0.0     0.0     0.0     0.0     0.0     0.0     0.0     0.0     0.0     0.1     0.1     0.0     0.1     0.1     0.3     0.3
 2020 174    69    0.02    0.00    0.02     627    0.00    63.6   0.000   0.064   0.000   0.081     0.7     0.0     0.8    9744     0.0     974    0.00    0.97    0.00    0.96     0.0     0.0     0.0     0.0     0.0     0.0     0.0     0.0     66.    174.    169.     48.     52.     56.    214.    196.     0.1     0.2     0.2     0.0     0.1     0.1     0.2     0.2     0.0     0.0     0.0     0.0     0.0     0.0     0.0     0.0     0.0     0.1     0.1     0.0     0.1     0.1     0.3     0.3
 2020 175    70    0.02    0.00    0.02     637    0.00    64.5   0.000   0.064   0.000   0.082     0.5     0.0     0.6    9798     0.0     886    0.00    0.89    0.00    0.89     0.0     0.0     0.0     0.0     0.0     0.0     0.0     0.0     22.    160.    160.     46.     49.     53.    206.    190.     0.0     0.2     0.2     0.0     0.0     0.1     0.2     0.2     0.0     0.0     0.0     0.0     0.0     0.0     0.0     0.0     0.0     0.1     0.1     0.0     0.1     0.1     0.3     0.3
 2020 176    71    0.02    0.00    0.02     646    0.00    65.4   0.000   0.065   0.000   0.083     0.6     0.0     0.7    9750     0.0     977    0.00    0.98    0.00    0.94     0.0     0.0     0.0     0.0     0.0     0.0     0.0     0.0     99.    165.    162.     46.     50.     54.    209.    192.     0.1     0.2     0.2     0.0     0.0     0.1     0.2     0.2     0.0     0.0     0.0     0.0     0.0     0.0     0.0     0.0     0.1     0.1     0.1     0.0     0.1     0.1     0.3     0.3
 2020 177    72    0.02    0.00    0.02     657    0.00    66.5   0.000   0.067   0.000   0.084     0.7     0.0     0.7   10480     0.0    1106    0.00    1.11    0.00    1.06     0.0     0.0     0.0     0.0     0.0     0.0     0.0     0.0    105.    196.    190.     53.     57.     62.    234.    209.     0.1     0.2     0.2     0.1     0.1     0.1     0.2     0.2     0.0     0.0     0.0     0.0     0.0     0.0     0.0     0.0     0.1     0.1     0.1     0.0     0.1     0.1     0.4     0.3
 2020 178    73    0.02    0.00    0.02     668    0.00    67.7   0.000   0.068   0.000   0.085     0.7     0.0     0.7   10543     0.0    1124    0.00    1.12    0.00    1.09     0.0     0.0     0.0     0.0     0.0     0.0     0.0     0.0    102.    200.    191.     54.     59.     63.    241.    215.     0.1     0.2     0.2     0.1     0.1     0.1     0.2     0.2     0.0     0.0     0.0     0.0     0.0     0.0     0.0     0.0     0.1     0.1     0.1     0.0     0.1     0.1     0.4     0.3
 2020 179    74    0.02    0.00    0.02     678    0.00    68.8   0.000   0.069   0.000   0.087     0.8     0.0     0.8   10326     0.0    1104    0.00    1.10    0.00    1.09     0.0     0.0     0.0     0.0     0.0     0.0     0.0     0.0     89.    196.    180.     54.     60.     64.    244.    217.     0.1     0.2     0.2     0.1     0.1     0.1     0.2     0.2     0.0     0.0     0.0     0.0     0.0     0.0     0.0     0.0     0.1     0.1     0.1     0.0     0.1     0.1     0.4     0.3
 2020 180    75    0.02    0.00    0.02     688    0.00    69.9   0.000   0.070   0.000   0.088     0.8     0.0     0.9   10208     0.0    1094    0.00    1.09    0.00    1.11     0.0     0.0     0.0     0.0     0.0     0.0     0.0     0.0     75.    186.    174.     56.     62.     66.    251.    223.     0.1     0.2     0.2     0.1     0.1     0.1     0.3     0.2     0.0     0.0     0.0     0.0     0.0     0.0     0.0     0.0     0.0     0.1     0.1     0.0     0.1     0.1     0.4     0.3
 2020 181    76    0.02    0.00    0.02     698    0.00    70.9   0.000   0.071   0.000   0.089     0.9     0.0     0.9    9810     0.0    1071    0.00    1.07    0.00    1.12     0.0     0.0     0.0     0.0     0.0     0.0     0.0     0.0     62.    162.    163.     59.     65.     69.    261.    230.     0.1     0.2     0.2     0.1     0.1     0.1     0.3     0.2     0.0     0.0     0.0     0.0     0.0     0.0     0.0     0.0     0.0     0.1     0.1     0.0     0.1     0.1     0.4     0.3
 2020 182    77    0.02    0.00    0.02     709    0.00    71.9   0.000   0.072   0.000   0.090     0.6     0.0     0.6   10690     0.0     967    0.00    0.97    0.00    1.05     0.0     0.0     0.0     0.0     0.0     0.0     0.0     0.0     26.    141.    132.     59.     44.     70.    263.    231.     0.0     0.1     0.1     0.1     0.0     0.1     0.3     0.2     0.0     0.0     0.0     0.0     0.0     0.0     0.0     0.0     0.0     0.1     0.1     0.0     0.0     0.1     0.4     0.3
 2020 183    78    0.02    0.00    0.02     719    0.00    73.0   0.000   0.073   0.000   0.091     0.7     0.0     0.7   10285     0.0    1089    0.00    1.09    0.00    1.12     0.0     0.0     0.0     0.0     0.0     0.0     0.0     0.0    137.    173.    117.     58.     38.     69.    263.    233.     0.1     0.2     0.1     0.1     0.0     0.1     0.3     0.2     0.0     0.0     0.0     0.0     0.0     0.0     0.0     0.0     0.1     0.1     0.1     0.0     0.0     0.1     0.4     0.4
 2020 184    79    0.03    0.00    0.03     728    0.00    74.0   0.000   0.074   0.000   0.092     0.8     0.0     0.8    9636     0.0     986    0.00    0.99    0.00    1.05     0.0     0.0     0.0     0.0     0.0     0.0     0.0     0.0    107.    142.    109.     54.     33.     66.    251.    224.     0.1     0.1     0.1     0.1     0.0     0.1     0.3     0.2     0.0     0.0     0.0     0.0     0.0     0.0     0.0     0.0     0.1     0.1     0.1     0.0     0.0     0.1     0.4     0.3
 2020 185    80    0.03    0.00    0.03     737    0.00    74.9   0.000   0.075   0.000   0.093     0.9     0.0     0.9    8785     0.0     939    0.00    0.94    0.00    1.04     0.0     0.0     0.0     0.0     0.0     0.0     0.0     0.0     98.    111.    103.     54.     32.     67.    252.    223.     0.1     0.1     0.1     0.1     0.0     0.1     0.3     0.2     0.0     0.0     0.0     0.0     0.0     0.0     0.0     0.0     0.1     0.1     0.1     0.0     0.0     0.1     0.4     0.3
 2020 186    81    0.03    0.00    0.03     746    0.00    75.8   0.000   0.076   0.000   0.094     1.0     0.0     1.0    8250     0.0     849    0.00    0.85    0.00    0.97     0.0     0.0     0.0     0.0     0.0     0.0     0.0     0.0     73.     92.     96.     52.     29.     43.    246.    218.     0.1     0.1     0.1     0.1     0.0     0.0     0.2     0.2     0.0     0.0     0.0     0.0     0.0     0.0     0.0     0.0     0.1     0.1     0.0     0.0     0.0     0.0     0.4     0.3
 2020 187    82    0.03    0.00    0.03     753    0.00    76.5   0.000   0.077   0.000   0.095     1.0     0.0     1.1    7657     0.0     772    0.00    0.77    0.00    0.90     0.0     0.0     0.0     0.0     0.0     0.0     0.0     0.0     58.     80.     84.     49.     25.     32.    234.    210.     0.1     0.1     0.1     0.0     0.0     0.0     0.2     0.2     0.0     0.0     0.0     0.0     0.0     0.0     0.0     0.0     0.0     0.1     0.0     0.0     0.0     0.0     0.4     0.3
 2020 188    83    0.03    0.00    0.03     760    0.00    77.2   0.000   0.077   0.000   0.096     1.0     0.0     1.1    7120     0.0     698    0.00    0.70    0.00    0.84     0.0     0.0     0.0     0.0     0.0     0.0     0.0     0.0     45.     64.     73.     45.     22.     26.    222.    201.     0.0     0.1     0.1     0.0     0.0     0.0     0.2     0.2     0.0     0.0     0.0     0.0     0.0     0.0     0.0     0.0     0.0     0.0     0.0     0.0     0.0     0.0     0.3     0.3
 2020 189    84    0.03    0.00    0.03     767    0.00    77.9   0.000   0.078   0.000   0.097     1.0     0.0     1.1    6923     0.0     693    0.00    0.69    0.00    0.84     0.0     0.0     0.0     0.0     0.0     0.0     0.0     0.0     42.     62.     70.     45.     21.     24.    226.    203.     0.0     0.1     0.1     0.0     0.0     0.0     0.2     0.2     0.0     0.0     0.0     0.0     0.0     0.0     0.0     0.0     0.0     0.0     0.0     0.0     0.0     0.0     0.3     0.3
 2020 190    85    0.03    0.00    0.03     774    0.00    78.6   0.000   0.079   0.000   0.097     1.0     0.0     1.1    6726     0.0     669    0.00    0.67    0.00    0.82     0.0     0.0     0.0     0.0     0.0     0.0     0.0     0.0     36.     58.     65.     44.     20.     22.    224.    201.     0.0     0.1     0.1     0.0     0.0     0.0     0.2     0.2     0.0     0.0     0.0     0.0     0.0     0.0     0.0     0.0     0.0     0.0     0.0     0.0     0.0     0.0     0.3     0.3
 2020 191    86    0.03    0.00    0.03     780    0.00    79.3   0.000   0.079   0.000   0.098     1.0     0.0     1.1    6459     0.0     684    0.00    0.68    0.00    0.84     0.0     0.0     0.0     0.0     0.0     0.0     0.0     0.0     33.     58.     66.     46.     20.     21.    233.    207.     0.0     0.1     0.1     0.0     0.0     0.0     0.2     0.2     0.0     0.0     0.0     0.0     0.0     0.0     0.0     0.0     0.0     0.0     0.0     0.0     0.0     0.0     0.4     0.3
 2020 192    87    0.03    0.00    0.03     787    0.00    79.9   0.000   0.080   0.000   0.099     1.0     0.0     1.2    6343     0.0     650    0.00    0.65    0.00    0.81     0.0     0.0     0.0     0.0     0.0     0.0     0.0     0.0     29.     54.     62.     45.     19.     20.    214.    206.     0.0     0.1     0.1     0.0     0.0     0.0     0.2     0.2     0.0     0.0     0.0     0.0     0.0     0.0     0.0     0.0     0.0     0.0     0.0     0.0     0.0     0.0     0.3     0.3
 2020 193    88    0.03    0.00    0.04     793    0.00    80.6   0.000   0.081   0.000   0.100     1.0     0.0     1.2    6299     0.0     644    0.00    0.64    0.00    0.80     0.0     0.0     0.0     0.0     0.0     0.0     0.0     0.0     27.     53.     61.     46.     18.     19.    210.    209.     0.0     0.1     0.1     0.0     0.0     0.0     0.2     0.2     0.0     0.0     0.0     0.0     0.0     0.0     0.0     0.0     0.0     0.0     0.0     0.0     0.0     0.0     0.3     0.3
 2020 194    89    0.04    0.00    0.04     799    0.00    81.2   0.000   0.081   0.000   0.101     1.0     0.0     1.2    6305     0.0     642    0.00    0.64    0.00    0.80     0.0     0.0     0.0     0.0     0.0     0.0     0.0     0.0     25.     52.     60.     47.     18.     19.    210.    211.     0.0     0.1     0.1     0.0     0.0     0.0     0.2     0.2     0.0     0.0     0.0     0.0     0.0     0.0     0.0     0.0     0.0     0.0     0.0     0.0     0.0     0.0     0.3     0.3
 2020 195    90    0.04    0.00    0.04     806    0.00    81.8   0.000   0.082   0.000   0.101     1.0     0.0     1.2    6239     0.0     626    0.00    0.63    0.00    0.79     0.0     0.0     0.0     0.0     0.0     0.0     0.0     0.0     24.     49.     56.     46.     17.     18.    205.    210.     0.0     0.0     0.1     0.0     0.0     0.0     0.2     0.2     0.0     0.0     0.0     0.0     0.0     0.0     0.0     0.0     0.0     0.0     0.0     0.0     0.0     0.0     0.3     0.3
 2020 196    91    0.04    0.00    0.04     812    0.00    82.4   0.000   0.082   0.000   0.104     1.0     0.0     1.2    6016     0.0     591    0.00    0.59    0.00    2.80     0.0     0.0     0.0     0.0     0.0     0.0     0.0     0.0     22.     46.     51.     44.     16.     16.    193.    203.     0.0     0.0     0.1     0.0     0.0     0.0     0.2     0.2     0.0     0.0     0.0     0.0     0.0     0.0     0.0     0.0     0.1     0.1     0.1     0.1     0.1     0.1     1.1     1.1
 2020 197    92    0.04    0.00    0.04     818    0.00    83.0   0.000   0.083   0.000   0.106     1.0     0.0     1.1    5991     0.0     594    0.00    0.59    0.00    2.27     0.0     0.0     0.0     0.0     0.0     0.0     0.0     0.0     32.     46.     50.     43.     16.     16.    190.    201.     0.0     0.0     0.0     0.0     0.0     0.0     0.2     0.2     0.0     0.0     0.0     0.0     0.0     0.0     0.0     0.0     0.1     0.1     0.1     0.1     0.1     0.1     0.9     0.9
 2020 198    93    0.04    0.00    0.04     823    0.00    83.6   0.000   0.084   0.000   0.108     1.0     0.0     1.2    5803     0.0     577    0.00    0.58    0.00    1.80     0.0     0.0     0.0     0.0     0.0     0.0     0.0     0.0     28.     45.     47.     42.     15.     15.    185.    199.     0.0     0.0     0.0     0.0     0.0     0.0     0.2     0.2     0.0     0.0     0.0     0.0     0.0     0.0     0.0     0.0     0.1     0.1     0.1     0.1     0.0     0.1     0.7     0.7
 2020 199    94    0.04    0.00    0.04     829    0.00    84.2   0.000   0.084   0.000   0.110     1.0     0.0     1.2    5591     0.0     557    0.00    0.56    0.00    1.42     0.0     0.0     0.0     0.0     0.0     0.0     0.0     0.0     25.     44.     45.     41.     14.     15.    178.    195.     0.0     0.0     0.0     0.0     0.0     0.0     0.2     0.2     0.0     0.0     0.0     0.0     0.0     0.0     0.0     0.0     0.0     0.1     0.1     0.0     0.0     0.0     0.5     0.6
 2020 200    95    0.04    0.00    0.04     835    0.00    84.7   0.000   0.085   0.000   0.111     0.9     0.0     1.0    5882     0.0     567    0.00    0.57    0.00    1.16     0.0     0.0     0.0     0.0     0.0     0.0     0.0     0.0     31.     45.     45.     42.     14.     15.    178.    197.     0.0     0.0     0.0     0.0     0.0     0.0     0.2     0.2     0.0     0.0     0.0     0.0     0.0     0.0     0.0     0.0     0.0     0.1     0.0     0.0     0.0     0.0     0.4     0.5
 2020 201    96    0.04    0.00    0.04     841    0.00    85.3   0.000   0.085   0.000   0.112     0.7     0.0     0.8    6488     0.0     591    0.00    0.59    0.00    0.96     0.0     0.0     0.0     0.0     0.0     0.0     0.0     0.0     47.     46.     45.     44.     15.     15.    178.    201.     0.0     0.0     0.0     0.0     0.0     0.0     0.2     0.2     0.0     0.0     0.0     0.0     0.0     0.0     0.0     0.0     0.0     0.0     0.0     0.0     0.0     0.0     0.4     0.4
 2020 202    97    0.04    0.00    0.05     848    0.00    85.9   0.000   0.086   0.000   0.113     0.7     0.0     0.9    6255     0.0     614    0.00    0.61    0.00    0.79     0.0     0.0     0.0     0.0     0.0     0.0     0.0     0.0     81.     45.     44.     43.     14.     15.    171.    201.     0.1     0.0     0.0     0.0     0.0     0.0     0.2     0.2     0.0     0.0     0.0     0.0     0.0     0.0     0.0     0.0     0.0     0.0     0.0     0.0     0.0     0.0     0.3     0.3
 2020 203    98    0.04    0.00    0.05     854    0.00    86.5   0.000   0.087   0.000   0.113     0.9     0.0     1.0    5962     0.0     622    0.00    0.62    0.00    0.75     0.0     0.0     0.0     0.0     0.0     0.0     0.0     0.0     85.     47.     45.     44.     14.     15.    170.    203.     0.1     0.0     0.0     0.0     0.0     0.0     0.2     0.2     0.0     0.0     0.0     0.0     0.0     0.0     0.0     0.0     0.1     0.0     0.0     0.0     0.0     0.0     0.3     0.3
 2020 204    99    0.04    0.00    0.05     859    0.00    87.1   0.000   0.087   0.000   0.114     0.9     0.0     1.1    5702     0.0     582    0.00    0.58    0.00    0.72     0.0     0.0     0.0     0.0     0.0     0.0     0.0     0.0     62.     45.     44.     43.     14.     14.    161.    199.     0.1     0.0     0.0     0.0     0.0     0.0     0.2     0.2     0.0     0.0     0.0     0.0     0.0     0.0     0.0     0.0     0.0     0.0     0.0     0.0     0.0     0.0     0.3     0.3
 2020 205   100    0.05    0.00    0.05     865    0.00    87.7   0.000   0.088   0.000   0.115     0.9     0.0     1.1    5468     0.0     556    0.00    0.56    0.00    0.70     0.0     0.0     0.0     0.0     0.0     0.0     0.0     0.0     51.     44.     43.     42.     13.     14.    153.    196.     0.1     0.0     0.0     0.0     0.0     0.0     0.2     0.2     0.0     0.0     0.0     0.0     0.0     0.0     0.0     0.0     0.0     0.0     0.0     0.0     0.0     0.0     0.3     0.3
 2020 206   101    0.05    0.00    0.05     870    0.00    88.2   0.000   0.088   0.000   0.115     0.9     0.0     1.2    5240     0.0     534    0.00    0.53    0.00    0.68     0.0     0.0     0.0     0.0     0.0     0.0     0.0     0.0     45.     44.     42.     41.     13.     14.    142.    193.     0.0     0.0     0.0     0.0     0.0     0.0     0.1     0.2     0.0     0.0     0.0     0.0     0.0     0.0     0.0     0.0     0.0     0.0     0.0     0.0     0.0     0.0     0.2     0.3
 2020 207   102    0.05    0.00    0.05     875    0.00    88.8   0.000   0.089   0.000   0.116     0.9     0.0     1.2    5230     0.0     544    0.00    0.54    0.00    0.69     0.0     0.0     0.0     0.0     0.0     0.0     0.0     0.0     43.     47.     45.     44.     14.     15.    139.    197.     0.0     0.0     0.0     0.0     0.0     0.0     0.1     0.2     0.0     0.0     0.0     0.0     0.0     0.0     0.0     0.0     0.0     0.0     0.0     0.0     0.0     0.0     0.2     0.3
 2020 208   103    0.05    0.00    0.05     880    0.00    89.3   0.000   0.089   0.000   0.117     0.9     0.0     1.2    5166     0.0     539    0.00    0.54    0.00    0.69     0.0     0.0     0.0     0.0     0.0     0.0     0.0     0.0     38.     49.     47.     45.     14.     15.    131.    199.     0.0     0.0     0.0     0.0     0.0     0.0     0.1     0.2     0.0     0.0     0.0     0.0     0.0     0.0     0.0     0.0     0.0     0.0     0.0     0.0     0.0     0.0     0.2     0.3
 2020 209   104    0.05    0.00    0.05     889    0.00    89.8   0.000   0.090   0.000   0.117     0.5     0.0     0.6    8733     0.0     478    0.00    0.48    0.00    0.63     0.0     0.0     0.0     0.0     0.0     0.0     0.0     0.0     15.     14.     49.     47.     15.     16.    122.    201.     0.0     0.0     0.0     0.0     0.0     0.0     0.1     0.2     0.0     0.0     0.0     0.0     0.0     0.0     0.0     0.0     0.0     0.0     0.0     0.0     0.0     0.0     0.2     0.3
 2020 210   105    0.05    0.00    0.05     898    0.00    90.4   0.000   0.090   0.000   0.118     0.6     0.0     0.7    8953     0.0     587    0.00    0.59    0.00    0.68     0.0     0.0     0.0     0.0     0.0     0.0     0.0     0.0     43.     78.     67.     44.     14.     15.    115.    211.     0.0     0.1     0.1     0.0     0.0     0.0     0.1     0.2     0.0     0.0     0.0     0.0     0.0     0.0     0.0     0.0     0.0     0.0     0.0     0.0     0.0     0.0     0.2     0.3
 2020 211   106    0.05    0.00    0.05     907    0.00    91.2   0.000   0.091   0.000   0.119     0.7     0.0     0.9    8459     0.0     825    0.00    0.82    0.00    0.78     0.0     0.0     0.0     0.0     0.0     0.0     0.0     0.0    135.    246.     75.     40.     13.     14.    102.    200.     0.1     0.2     0.1     0.0     0.0     0.0     0.1     0.2     0.0     0.0     0.0     0.0     0.0     0.0     0.0     0.0     0.1     0.1     0.0     0.0     0.0     0.0     0.2     0.3
 2020 212   107    0.05    0.00    0.05     915    0.00    91.9   0.000   0.092   0.000   0.120     0.6     0.0     0.8    8379     0.0     658    0.00    0.66    0.00    0.68     0.0     0.0     0.0     0.0     0.0     0.0     0.0     0.0     38.    181.     77.     40.     13.     14.     98.    196.     0.0     0.2     0.1     0.0     0.0     0.0     0.1     0.2     0.0     0.0     0.0     0.0     0.0     0.0     0.0     0.0     0.0     0.1     0.0     0.0     0.0     0.0     0.2     0.3
 2020 213   108    0.05    0.00    0.06     923    0.00    92.5   0.000   0.093   0.000   0.120     0.7     0.0     0.9    7757     0.0     682    0.00    0.68    0.00    0.68     0.0     0.0     0.0     0.0     0.0     0.0     0.0     0.0    115.    152.     76.     37.     12.     13.     91.    187.     0.1     0.2     0.1     0.0     0.0     0.0     0.1     0.2     0.0     0.0     0.0     0.0     0.0     0.0     0.0     0.0     0.1     0.1     0.0     0.0     0.0     0.0     0.2     0.3
 2020 214   109    0.05    0.00    0.06     930    0.00    93.2   0.000   0.093   0.000   0.121     0.7     0.0     0.9    7279     0.0     627    0.00    0.63    0.00    0.64     0.0     0.0     0.0     0.0     0.0     0.0     0.0     0.0     85.    143.     73.     35.     11.     12.     86.    182.     0.1     0.1     0.1     0.0     0.0     0.0     0.1     0.2     0.0     0.0     0.0     0.0     0.0     0.0     0.0     0.0     0.0     0.1     0.0     0.0     0.0     0.0     0.2     0.3
 2020 215   110    0.05    0.00    0.06     937    0.00    93.8   0.000   0.094   0.000   0.122     0.7     0.0     0.9    7166     0.0     658    0.00    0.66    0.00    0.67     0.0     0.0     0.0     0.0     0.0     0.0     0.0     0.0     85.    156.     78.     38.     12.     13.     90.    187.     0.1     0.2     0.1     0.0     0.0     0.0     0.1     0.2     0.0     0.0     0.0     0.0     0.0     0.0     0.0     0.0     0.0     0.1     0.0     0.0     0.0     0.0     0.2     0.3
 2020 216   111    0.05    0.00    0.06     944    0.00    94.5   0.000   0.094   0.000   0.122     0.8     0.0     1.0    6901     0.0     654    0.00    0.65    0.00    0.68     0.0     0.0     0.0     0.0     0.0     0.0     0.0     0.0     77.    156.     78.     39.     12.     13.     90.    189.     0.1     0.2     0.1     0.0     0.0     0.0     0.1     0.2     0.0     0.0     0.0     0.0     0.0     0.0     0.0     0.0     0.0     0.1     0.0     0.0     0.0     0.0     0.2     0.3
 2020 217   112    0.05    0.00    0.06     951    0.00    95.1   0.000   0.095   0.000   0.123     0.7     0.0     0.9    6778     0.0     592    0.00    0.59    0.00    0.63     0.0     0.0     0.0     0.0     0.0     0.0     0.0     0.0     60.    134.     71.     36.     11.     12.     85.    182.     0.1     0.1     0.1     0.0     0.0     0.0     0.1     0.2     0.0     0.0     0.0     0.0     0.0     0.0     0.0     0.0     0.0     0.1     0.0     0.0     0.0     0.0     0.2     0.3
 2020 218   113    0.05    0.00    0.06     957    0.00    95.7   0.000   0.096   0.000   0.124     0.7     0.0     0.9    6706     0.0     607    0.00    0.61    0.00    0.64     0.0     0.0     0.0     0.0     0.0     0.0     0.0     0.0     71.    129.     72.     37.     12.     13.     87.    186.     0.1     0.1     0.1     0.0     0.0     0.0     0.1     0.2     0.0     0.0     0.0     0.0     0.0     0.0     0.0     0.0     0.0     0.1     0.0     0.0     0.0     0.0     0.2     0.3
 2020 219   114    0.06    0.00    0.06     964    0.00    96.3   0.000   0.096   0.000   0.124     0.7     0.0     1.0    6398     0.0     600    0.00    0.60    0.00    0.64     0.0     0.0     0.0     0.0     0.0     0.0     0.0     0.0     76.    120.     71.     37.     12.     13.     86.    186.     0.1     0.1     0.1     0.0     0.0     0.0     0.1     0.2     0.0     0.0     0.0     0.0     0.0     0.0     0.0     0.0     0.0     0.1     0.0     0.0     0.0     0.0     0.2     0.3
 2020 220   115    0.06    0.00    0.06     971    0.00    96.8   0.000   0.097   0.000   0.125     0.7     0.0     0.9    6785     0.0     567    0.00    0.57    0.00    0.61     0.0     0.0     0.0     0.0     0.0     0.0     0.0     0.0     71.    103.     67.     36.     11.     12.     84.    183.     0.1     0.1     0.1     0.0     0.0     0.0     0.1     0.2     0.0     0.0     0.0     0.0     0.0     0.0     0.0     0.0     0.0     0.1     0.0     0.0     0.0     0.0     0.2     0.3
 2020 221   116    0.06    0.00    0.06     977    0.00    97.5   0.000   0.097   0.000   0.125     0.7     0.0     0.9    6756     0.0     614    0.00    0.61    0.00    0.65     0.0     0.0     0.0     0.0     0.0     0.0     0.0     0.0     79.    124.     70.     38.     12.     13.     87.    190.     0.1     0.1     0.1     0.0     0.0     0.0     0.1     0.2     0.0     0.0     0.0     0.0     0.0     0.0     0.0     0.0     0.0     0.1     0.0     0.0     0.0     0.0     0.2     0.3
 2020 222   117    0.06    0.00    0.06     984    0.00    98.1   0.000   0.098   0.000   0.126     0.8     0.0     1.0    6702     0.0     660    0.00    0.66    0.00    0.70     0.0     0.0     0.0     0.0     0.0     0.0     0.0     0.0     89.    134.     76.     42.     13.     14.     93.    198.     0.1     0.1     0.1     0.0     0.0     0.0     0.1     0.2     0.0     0.0     0.0     0.0     0.0     0.0     0.0     0.0     0.0     0.1     0.0     0.0     0.0     0.0     0.2     0.3
 2020 223   118    0.06    0.00    0.07     991    0.00    98.8   0.000   0.099   0.000   0.127     0.9     0.0     1.1    6480     0.0     664    0.00    0.66    0.00    0.72     0.0     0.0     0.0     0.0     0.0     0.0     0.0     0.0     86.    128.     79.     44.     14.     15.     96.    203.     0.1     0.1     0.1     0.0     0.0     0.0     0.1     0.2     0.0     0.0     0.0     0.0     0.0     0.0     0.0     0.0     0.1     0.1     0.0     0.0     0.0     0.0     0.2     0.3
 2020 224   119    0.06    0.00    0.07     997    0.00    99.4   0.000   0.099   0.000   0.128     0.9     0.0     1.2    6224     0.0     626    0.00    0.63    0.00    0.71     0.0     0.0     0.0     0.0     0.0     0.0     0.0     0.0     70.    105.     78.     45.     14.     15.     95.    203.     0.1     0.1     0.1     0.0     0.0     0.0     0.1     0.2     0.0     0.0     0.0     0.0     0.0     0.0     0.0     0.0     0.0     0.1     0.0     0.0     0.0     0.0     0.2     0.3
 2020 225   120    0.06    0.00    0.07    1003    0.00   100.0   0.000   0.100   0.000   0.128     0.9     0.0     1.2    5992     0.0     599    0.00    0.60    0.00    0.70     0.0     0.0     0.0     0.0     0.0     0.0     0.0     0.0     59.     88.     77.     45.     14.     15.     95.    205.     0.1     0.1     0.1     0.0     0.0     0.0     0.1     0.2     0.0     0.0     0.0     0.0     0.0     0.0     0.0     0.0     0.0     0.1     0.0     0.0     0.0     0.0     0.2     0.3
 2020 226   121    0.06    0.00    0.07    1009    0.00   100.6   0.000   0.101   0.000   0.129     1.0     0.0     1.3    5709     0.0     553    0.00    0.55    0.00    0.66     0.0     0.0     0.0     0.0     0.0     0.0     0.0     0.0     48.     71.     70.     44.     14.     15.     91.    201.     0.0     0.1     0.1     0.0     0.0     0.0     0.1     0.2     0.0     0.0     0.0     0.0     0.0     0.0     0.0     0.0     0.0     0.0     0.0     0.0     0.0     0.0     0.2     0.3
 2020 227   122    0.06    0.00    0.07    1014    0.00   101.1   0.000   0.101   0.000   0.130     1.0     0.0     1.3    5457     0.0     524    0.00    0.52    0.00    0.64     0.0     0.0     0.0     0.0     0.0     0.0     0.0     0.0     42.     62.     65.     43.     13.     14.     87.    198.     0.0     0.1     0.1     0.0     0.0     0.0     0.1     0.2     0.0     0.0     0.0     0.0     0.0     0.0     0.0     0.0     0.0     0.0     0.0     0.0     0.0     0.0     0.2     0.3
 2020 228   123    0.06    0.00    0.07    1019    0.00   101.6   0.000   0.102   0.000   0.130     1.0     0.0     1.3    5210     0.0     498    0.00    0.50    0.00    0.62     0.0     0.0     0.0     0.0     0.0     0.0     0.0     0.0     35.     56.     60.     42.     13.     14.     83.    195.     0.0     0.1     0.1     0.0     0.0     0.0     0.1     0.2     0.0     0.0     0.0     0.0     0.0     0.0     0.0     0.0     0.0     0.0     0.0     0.0     0.0     0.0     0.2     0.3
 2020 229   124    0.06    0.00    0.07    1024    0.00   102.1   0.000   0.102   0.000   0.131     1.0     0.0     1.3    5023     0.0     482    0.00    0.48    0.00    0.60     0.0     0.0     0.0     0.0     0.0     0.0     0.0     0.0     30.     53.     57.     41.     13.     14.     81.    193.     0.0     0.1     0.1     0.0     0.0     0.0     0.1     0.2     0.0     0.0     0.0     0.0     0.0     0.0     0.0     0.0     0.0     0.0     0.0     0.0     0.0     0.0     0.2     0.3
 2020 230   125    0.07    0.00    0.07    1029    0.00   102.5   0.000   0.103   0.000   0.131     0.9     0.0     1.2    5109     0.0     477    0.00    0.48    0.00    0.60     0.0     0.0     0.0     0.0     0.0     0.0     0.0     0.0     32.     50.     55.     41.     13.     14.     79.    193.     0.0     0.1     0.1     0.0     0.0     0.0     0.1     0.2     0.0     0.0     0.0     0.0     0.0     0.0     0.0     0.0     0.0     0.0     0.0     0.0     0.0     0.0     0.2     0.3
 2020 231   126    0.07    0.00    0.07    1036    0.00   103.0   0.000   0.103   0.000   0.132     0.5     0.0     0.7    6524     0.0     464    0.00    0.46    0.00    0.58     0.0     0.0     0.0     0.0     0.0     0.0     0.0     0.0     16.     50.     54.     42.     13.     14.     79.    195.     0.0     0.0     0.1     0.0     0.0     0.0     0.1     0.2     0.0     0.0     0.0     0.0     0.0     0.0     0.0     0.0     0.0     0.0     0.0     0.0     0.0     0.0     0.2     0.3
 2020 232   127    0.07    0.00    0.08    1042    0.00   103.6   0.000   0.104   0.000   0.133     0.7     0.0     0.9    6368     0.0     594    0.00    0.59    0.00    0.67     0.0     0.0     0.0     0.0     0.0     0.0     0.0     0.0     99.     87.     53.     43.     14.     15.     80.    204.     0.1     0.1     0.1     0.0     0.0     0.0     0.1     0.2     0.0     0.0     0.0     0.0     0.0     0.0     0.0     0.0     0.1     0.1     0.0     0.0     0.0     0.0     0.2     0.3
 2020 233   128    0.07    0.00    0.08    1048    0.00   104.2   0.000   0.104   0.000   0.133     0.7     0.0     1.0    6064     0.0     571    0.00    0.57    0.00    0.65     0.0     0.0     0.0     0.0     0.0     0.0     0.0     0.0     91.     85.     50.     42.     13.     14.     77.    199.     0.1     0.1     0.0     0.0     0.0     0.0     0.1     0.2     0.0     0.0     0.0     0.0     0.0     0.0     0.0     0.0     0.0     0.1     0.0     0.0     0.0     0.0     0.2     0.3
 2020 234   129    0.07    0.00    0.08    1054    0.00   104.7   0.000   0.105   0.000   0.134     0.8     0.0     1.1    5698     0.0     558    0.00    0.56    0.00    0.64     0.0     0.0     0.0     0.0     0.0     0.0     0.0     0.0     87.     79.     49.     42.     13.     14.     75.    198.     0.1     0.1     0.0     0.0     0.0     0.0     0.1     0.2     0.0     0.0     0.0     0.0     0.0     0.0     0.0     0.0     0.1     0.1     0.0     0.0     0.0     0.0     0.2     0.3
 2020 235   130    0.07    0.00    0.08    1059    0.00   105.3   0.000   0.105   0.000   0.135     0.9     0.0     1.2    5371     0.0     531    0.00    0.53    0.00    0.63     0.0     0.0     0.0     0.0     0.0     0.0     0.0     0.0     69.     74.     48.     42.     13.     14.     74.    196.     0.1     0.1     0.0     0.0     0.0     0.0     0.1     0.2     0.0     0.0     0.0     0.0     0.0     0.0     0.0     0.0     0.0     0.0     0.0     0.0     0.0     0.0     0.1     0.3
 2020 236   131    0.07    0.00    0.08    1065    0.00   105.8   0.000   0.106   0.000   0.135     0.9     0.0     1.2    5181     0.0     510    0.00    0.51    0.00    0.62     0.0     0.0     0.0     0.0     0.0     0.0     0.0     0.0     53.     69.     48.     42.     13.     14.     74.    196.     0.1     0.1     0.0     0.0     0.0     0.0     0.1     0.2     0.0     0.0     0.0     0.0     0.0     0.0     0.0     0.0     0.0     0.0     0.0     0.0     0.0     0.0     0.1     0.3
 2020 237   132    0.07    0.00    0.08    1070    0.00   106.3   0.000   0.106   0.000   0.136     0.9     0.0     1.2    5053     0.0     498    0.00    0.50    0.00    0.61     0.0     0.0     0.0     0.0     0.0     0.0     0.0     0.0     46.     64.     47.     43.     13.     14.     73.    196.     0.0     0.1     0.0     0.0     0.0     0.0     0.1     0.2     0.0     0.0     0.0     0.0     0.0     0.0     0.0     0.0     0.0     0.0     0.0     0.0     0.0     0.0     0.1     0.3
 2020 238   133    0.07    0.00    0.08    1076    0.00   106.7   0.000   0.107   0.000   0.136     0.5     0.0     0.7    6538     0.0     472    0.00    0.47    0.00    0.59     0.0     0.0     0.0     0.0     0.0     0.0     0.0     0.0     16.     62.     48.     44.     14.     15.     74.    199.     0.0     0.1     0.0     0.0     0.0     0.0     0.1     0.2     0.0     0.0     0.0     0.0     0.0     0.0     0.0     0.0     0.0     0.0     0.0     0.0     0.0     0.0     0.2     0.3
 2020 239   134    0.07    0.00    0.08    1083    0.00   107.4   0.000   0.107   0.000   0.137     0.7     0.0     0.9    6433     0.0     619    0.00    0.62    0.00    0.69     0.0     0.0     0.0     0.0     0.0     0.0     0.0     0.0    110.     98.     48.     45.     14.     15.     77.    211.     0.1     0.1     0.0     0.0     0.0     0.0     0.1     0.2     0.0     0.0     0.0     0.0     0.0     0.0     0.0     0.0     0.1     0.1     0.0     0.0     0.0     0.0     0.2     0.3
 2020 240   135    0.07    0.00    0.08    1089    0.00   108.0   0.000   0.108   0.000   0.138     0.7     0.0     1.0    6217     0.0     603    0.00    0.60    0.00    0.68     0.0     0.0     0.0     0.0     0.0     0.0     0.0     0.0    102.     95.     48.     46.     14.     16.     75.    208.     0.1     0.1     0.0     0.0     0.0     0.0     0.1     0.2     0.0     0.0     0.0     0.0     0.0     0.0     0.0     0.0     0.1     0.1     0.0     0.0     0.0     0.0     0.2     0.3
 2020 241   136    0.07    0.00    0.09    1095    0.00   108.5   0.000   0.109   0.000   0.138     0.8     0.0     1.1    5884     0.0     585    0.00    0.59    0.00    0.67     0.0     0.0     0.0     0.0     0.0     0.0     0.0     0.0     95.     86.     48.     46.     14.     16.     74.    207.     0.1     0.1     0.0     0.0     0.0     0.0     0.1     0.2     0.0     0.0     0.0     0.0     0.0     0.0     0.0     0.0     0.1     0.1     0.0     0.0     0.0     0.0     0.2     0.3
 2020 242   137    0.07    0.00    0.09    1104    0.00   109.0   0.000   0.109   0.000   0.139     0.7     0.0     0.9    9280     0.0     501    0.00    0.50    0.00    0.60     0.0     0.0     0.0     0.0     0.0     0.0     0.0     0.0     73.     25.     48.     46.     14.     15.     73.    205.     0.1     0.0     0.0     0.0     0.0     0.0     0.1     0.2     0.0     0.0     0.0     0.0     0.0     0.0     0.0     0.0     0.0     0.0     0.0     0.0     0.0     0.0     0.2     0.3
 2020 243   138    0.07    0.00    0.09    1113    0.00   109.6   0.000   0.110   0.000   0.140     0.4     0.0     0.5    9253     0.0     551    0.00    0.55    0.00    0.62     0.0     0.0     0.0     0.0     0.0     0.0     0.0     0.0     29.     80.     83.     43.     14.     15.     73.    216.     0.0     0.1     0.1     0.0     0.0     0.0     0.1     0.2     0.0     0.0     0.0     0.0     0.0     0.0     0.0     0.0     0.0     0.0     0.0     0.0     0.0     0.0     0.1     0.3
 2020 244   139    0.08    0.00    0.09    1122    0.00   110.5   0.000   0.110   0.000   0.140     0.7     0.0     0.9    9179     0.0     873    0.00    0.87    0.00    0.80     0.0     0.0     0.0     0.0     0.0     0.0     0.0     0.0    137.    281.     99.     43.     14.     15.     71.    213.     0.1     0.3     0.1     0.0     0.0     0.0     0.1     0.2     0.0     0.0     0.0     0.0     0.0     0.0     0.0     0.0     0.1     0.1     0.0     0.0     0.0     0.0     0.1     0.3
 2020 245   140    0.08    0.00    0.09    1132    0.00   111.0   0.000   0.111   0.000   0.141     0.5     0.0     0.7    9852     0.0     523    0.00    0.52    0.00    0.58     0.0     0.0     0.0     0.0     0.0     0.0     0.0     0.0     34.     63.     94.     39.     12.     14.     65.    202.     0.0     0.1     0.1     0.0     0.0     0.0     0.1     0.2     0.0     0.0     0.0     0.0     0.0     0.0     0.0     0.0     0.0     0.0     0.0     0.0     0.0     0.0     0.1     0.3
 2020 246   141    0.08    0.00    0.09    1141    0.00   111.6   0.000   0.112   0.000   0.142     0.7     0.0     0.9    9272     0.0     647    0.00    0.65    0.00    0.64     0.0     0.0     0.0     0.0     0.0     0.0     0.0     0.0    112.     96.    121.     36.     12.     13.     61.    197.     0.1     0.1     0.1     0.0     0.0     0.0     0.1     0.2     0.0     0.0     0.0     0.0     0.0     0.0     0.0     0.0     0.1     0.0     0.1     0.0     0.0     0.0     0.1     0.3
 2020 247   142    0.08    0.00    0.09    1150    0.00   112.4   0.000   0.112   0.000   0.142     0.7     0.0     0.9    8793     0.0     775    0.00    0.78    0.00    0.70     0.0     0.0     0.0     0.0     0.0     0.0     0.0     0.0     87.    248.    129.     36.     11.     12.     59.    193.     0.1     0.2     0.1     0.0     0.0     0.0     0.1     0.2     0.0     0.0     0.0     0.0     0.0     0.0     0.0     0.0     0.0     0.1     0.1     0.0     0.0     0.0     0.1     0.3
 2020 248   143    0.08    0.00    0.09    1159    0.00   113.2   0.000   0.113   0.000   0.143     0.7     0.0     0.9    8749     0.0     741    0.00    0.74    0.00    0.69     0.0     0.0     0.0     0.0     0.0     0.0     0.0     0.0     83.    198.    141.     37.     12.     13.     60.    196.     0.1     0.2     0.1     0.0     0.0     0.0     0.1     0.2     0.0     0.0     0.0     0.0     0.0     0.0     0.0     0.0     0.0     0.1     0.1     0.0     0.0     0.0     0.1     0.3
 2020 249   144    0.08    0.00    0.09    1168    0.00   113.9   0.000   0.114   0.000   0.144     0.7     0.0     0.9    8480     0.0     706    0.00    0.71    0.00    0.67     0.0     0.0     0.0     0.0     0.0     0.0     0.0     0.0     78.    170.    143.     37.     12.     13.     59.    194.     0.1     0.2     0.1     0.0     0.0     0.0     0.1     0.2     0.0     0.0     0.0     0.0     0.0     0.0     0.0     0.0     0.0     0.1     0.1     0.0     0.0     0.0     0.1     0.3
 2020 250   145    0.08    0.00    0.09    1176    0.00   114.6   0.000   0.115   0.000   0.144     0.7     0.0     1.0    8694     0.0     757    0.00    0.76    0.00    0.72     0.0     0.0     0.0     0.0     0.0     0.0     0.0     0.0     84.    179.    161.     40.     13.     14.     63.    203.     0.1     0.2     0.2     0.0     0.0     0.0     0.1     0.2     0.0     0.0     0.0     0.0     0.0     0.0     0.0     0.0     0.0     0.1     0.1     0.0     0.0     0.0     0.1     0.3
 2020 251   146    0.08    0.00    0.09    1185    0.00   115.4   0.000   0.115   0.000   0.145     0.8     0.0     1.0    8983     0.0     812    0.00    0.81    0.00    0.77     0.0     0.0     0.0     0.0     0.0     0.0     0.0     0.0     85.    194.    179.     45.     14.     15.     68.    212.     0.1     0.2     0.2     0.0     0.0     0.0     0.1     0.2     0.0     0.0     0.0     0.0     0.0     0.0     0.0     0.0     0.1     0.1     0.1     0.0     0.0     0.0     0.1     0.3
 2020 252   147    0.08    0.00    0.09    1195    0.00   116.1   0.000   0.116   0.000   0.146     0.7     0.0     0.9    9742     0.0     623    0.00    0.62    0.00    0.65     0.0     0.0     0.0     0.0     0.0     0.0     0.0     0.0     31.     67.    173.     44.     14.     15.     67.    212.     0.0     0.1     0.2     0.0     0.0     0.0     0.1     0.2     0.0     0.0     0.0     0.0     0.0     0.0     0.0     0.0     0.0     0.0     0.1     0.0     0.0     0.0     0.1     0.3
 2020 253   148    0.08    0.00    0.10    1204    0.00   116.6   0.000   0.117   0.000   0.146     0.3     0.0     0.5    9120     0.0     583    0.00    0.58    0.00    0.60     0.0     0.0     0.0     0.0     0.0     0.0     0.0     0.0     33.     73.    151.     38.     12.     13.     61.    203.     0.0     0.1     0.2     0.0     0.0     0.0     0.1     0.2     0.0     0.0     0.0     0.0     0.0     0.0     0.0     0.0     0.0     0.0     0.1     0.0     0.0     0.0     0.1     0.3
 2020 254   149    0.08    0.00    0.10    1213    0.00   117.0   0.000   0.117   0.000   0.147     0.2     0.0     0.3    8692     0.0     391    0.00    0.39    0.00    0.45     0.0     0.0     0.0     0.0     0.0     0.0     0.0     0.0     26.     60.     28.     29.      9.     10.     50.    179.     0.0     0.1     0.0     0.0     0.0     0.0     0.1     0.2     0.0     0.0     0.0     0.0     0.0     0.0     0.0     0.0     0.0     0.0     0.0     0.0     0.0     0.0     0.1     0.3
 2020 255   150    0.08    0.00    0.10    1220    0.00   117.4   0.000   0.117   0.000   0.147     0.4     0.0     0.6    7486     0.0     388    0.00    0.39    0.00    0.42     0.0     0.0     0.0     0.0     0.0     0.0     0.0     0.0     29.     65.     35.     38.      8.      9.     43.    161.     0.0     0.1     0.0     0.0     0.0     0.0     0.0     0.2     0.0     0.0     0.0     0.0     0.0     0.0     0.0     0.0     0.0     0.0     0.0     0.0     0.0     0.0     0.1     0.2
 2020 256   151    0.08    0.00    0.10    1227    0.00   117.8   0.000   0.118   0.000   0.148     0.6     0.0     0.8    6584     0.1     383    0.00    0.38    0.07    0.42     0.0     0.0     0.0     0.0     0.0     0.0     0.0     0.0     30.     65.     42.     42.      7.      8.     39.    151.     0.0     0.1     0.0     0.0     0.0     0.0     0.0     0.2     0.0     0.0     0.0     0.0     0.0     0.0     0.0     0.0     0.0     0.0     0.0     0.0     0.0     0.0     0.1     0.2
 2020 257   152    0.08    0.00    0.10    1233    0.00   118.4   0.000   0.118   0.000   0.148     0.7     0.0     0.9    6065     0.0     582    0.00    0.58    0.00    0.51     0.0     0.0     0.0     0.0     0.0     0.0     0.0     0.0     67.    146.    124.     46.      6.      7.     38.    148.     0.1     0.1     0.1     0.0     0.0     0.0     0.0     0.1     0.0     0.0     0.0     0.0     0.0     0.0     0.0     0.0     0.0     0.1     0.1     0.0     0.0     0.0     0.1     0.2
 2020 258   153    0.08    0.00    0.10    1240    0.00   119.0   0.000   0.119   0.000   0.149     0.7     0.0     0.9    7118     0.0     652    0.00    0.65    0.00    0.58     0.0     0.0     0.0     0.0     0.0     0.0     0.0     0.0     74.    158.    137.     60.      8.      9.     43.    164.     0.1     0.2     0.1     0.1     0.0     0.0     0.0     0.2     0.0     0.0     0.0     0.0     0.0     0.0     0.0     0.0     0.0     0.1     0.1     0.0     0.0     0.0     0.1     0.3
 2020 259   154    0.08    0.00    0.10    1249    0.00   119.8   0.000   0.120   0.000   0.150     0.7     0.0     0.9    8628     0.0     782    0.00    0.78    0.00    0.68     0.0     0.0     0.0     0.0     0.0     0.0     0.0     0.0     89.    187.    165.     83.     10.     11.     52.    186.     0.1     0.2     0.2     0.1     0.0     0.0     0.1     0.2     0.0     0.0     0.0     0.0     0.0     0.0     0.0     0.0     0.0     0.1     0.1     0.0     0.0     0.0     0.1     0.3
 2020 260   155    0.08    0.00    0.10    1259    0.00   120.3   0.000   0.120   0.000   0.150     0.3     0.0     0.3   10073     0.0     526    0.00    0.53    0.00    0.56     0.0     0.0     0.0     0.0     0.0     0.0     0.0     0.0     27.     60.     49.    104.     12.     13.     58.    203.     0.0     0.1     0.0     0.1     0.0     0.0     0.1     0.2     0.0     0.0     0.0     0.0     0.0     0.0     0.0     0.0     0.0     0.0     0.0     0.0     0.0     0.0     0.1     0.3
 2020 261   156    0.09    0.00    0.10    1270    0.00   121.1   0.000   0.121   0.000   0.151     0.7     0.0     0.9   10850     0.0     739    0.00    0.74    0.00    0.70     0.0     0.0     0.0     0.0     0.0     0.0     0.0     0.0    129.    109.     86.    123.     12.     13.     59.    209.     0.1     0.1     0.1     0.1     0.0     0.0     0.1     0.2     0.0     0.0     0.0     0.0     0.0     0.0     0.0     0.0     0.1     0.1     0.0     0.1     0.0     0.0     0.1     0.3
 2020 262   157    0.09    0.00    0.10    1280    0.00   122.1   0.000   0.122   0.000   0.152     0.7     0.0     0.9   10554     0.0    1064    0.00    1.06    0.00    0.85     0.0     0.0     0.0     0.0     0.0     0.0     0.0     0.0     97.    278.    280.    125.     12.     13.     56.    203.     0.1     0.3     0.3     0.1     0.0     0.0     0.1     0.2     0.0     0.0     0.0     0.0     0.0     0.0     0.0     0.0     0.1     0.1     0.1     0.1     0.0     0.0     0.1     0.3
[...]
 2020 238   133    0.07    0.00    0.08    1097    0.00   108.8   0.000   0.109   0.000   0.140     0.5     0.0     0.7    7005     0.0     520    0.00    0.52    0.00    0.65     0.0     0.0     0.0     0.0     0.0     0.0     0.0     0.0     17.     64.     52.     45.     14.     16.    109.    205.     0.0     0.1     0.1     0.0     0.0     0.0     0.1     0.2     0.0     0.0     0.0     0.0     0.0     0.0     0.0     0.0     0.0     0.0     0.0     0.0     0.0     0.0     0.2     0.3
 2020 239   134    0.07    0.00    0.08    1103    0.00   109.4   0.000   0.110   0.000   0.141     0.7     0.0     1.0    6845     0.0     670    0.00    0.67    0.00    0.75     0.0     0.0     0.0     0.0     0.0     0.0     0.0     0.0    113.    101.     51.     46.     14.     17.    113.    215.     0.1     0.1     0.1     0.0     0.0     0.0     0.1     0.2     0.0     0.0     0.0     0.0     0.0     0.0     0.0     0.0     0.1     0.1     0.0     0.0     0.0     0.0     0.2     0.3
 2020 240   135    0.07    0.00    0.08    1110    0.00   110.1   0.000   0.111   0.000   0.142     0.7     0.0     1.0    6604     0.0     652    0.00    0.65    0.00    0.74     0.0     0.0     0.0     0.0     0.0     0.0     0.0     0.0    105.     97.     50.     46.     15.     16.    110.    213.     0.1     0.1     0.1     0.0     0.0     0.0     0.1     0.2     0.0     0.0     0.0     0.0     0.0     0.0     0.0     0.0     0.1     0.1     0.0     0.0     0.0     0.0     0.2     0.3
 2020 241   136    0.07    0.00    0.09    1116    0.00   110.7   0.000   0.111   0.000   0.143     0.8     0.0     1.1    6253     0.0     631    0.00    0.63    0.00    0.74     0.0     0.0     0.0     0.0     0.0     0.0     0.0     0.0     96.     88.     49.     46.     15.     16.    109.    212.     0.1     0.1     0.0     0.0     0.0     0.0     0.1     0.2     0.0     0.0     0.0     0.0     0.0     0.0     0.0     0.0     0.1     0.1     0.0     0.0     0.0     0.0     0.2     0.3
 2020 242   137    0.07    0.00    0.09    1126    0.00   111.3   0.000   0.112   0.000   0.143     0.7     0.0     0.9    9716     0.0     544    0.00    0.54    0.00    0.66     0.0     0.0     0.0     0.0     0.0     0.0     0.0     0.0     73.     26.     49.     46.     15.     16.    108.    211.     0.1     0.0     0.0     0.0     0.0     0.0     0.1     0.2     0.0     0.0     0.0     0.0     0.0     0.0     0.0     0.0     0.0     0.0     0.0     0.0     0.0     0.0     0.2     0.3
 2020 243   138    0.07    0.00    0.09    1136    0.00   111.8   0.000   0.113   0.000   0.144     0.4     0.0     0.5    9628     0.0     594    0.00    0.59    0.00    0.68     0.0     0.0     0.0     0.0     0.0     0.0     0.0     0.0     29.     83.     87.     43.     14.     15.    105.    218.     0.0     0.1     0.1     0.0     0.0     0.0     0.1     0.2     0.0     0.0     0.0     0.0     0.0     0.0     0.0     0.0     0.0     0.0     0.0     0.0     0.0     0.0     0.2     0.3
 2020 244   139    0.08    0.00    0.09    1145    0.00   112.8   0.000   0.113   0.000   0.145     0.7     0.0     0.9    9522     0.0     926    0.00    0.93    0.00    0.86     0.0     0.0     0.0     0.0     0.0     0.0     0.0     0.0    140.    291.    104.     43.     14.     15.    104.    216.     0.1     0.3     0.1     0.0     0.0     0.0     0.1     0.2     0.0     0.0     0.0     0.0     0.0     0.0     0.0     0.0     0.1     0.2     0.0     0.0     0.0     0.0     0.2     0.3
 2020 245   140    0.08    0.00    0.09    1155    0.00   113.3   0.000   0.114   0.000   0.145     0.6     0.0     0.8   10217     0.0     567    0.00    0.57    0.00    0.63     0.0     0.0     0.0     0.0     0.0     0.0     0.0     0.0     37.     67.     98.     39.     12.     14.     95.    204.     0.0     0.1     0.1     0.0     0.0     0.0     0.1     0.2     0.0     0.0     0.0     0.0     0.0     0.0     0.0     0.0     0.0     0.0     0.0     0.0     0.0     0.0     0.2     0.3
 2020 246   141    0.08    0.00    0.09    1165    0.00   114.2   0.000   0.115   0.000   0.146     0.7     0.0     0.9    9563     0.0     820    0.00    0.82    0.00    0.76     0.0     0.0     0.0     0.0     0.0     0.0     0.0     0.0    113.    231.    128.     36.     12.     13.     89.    198.     0.1     0.2     0.1     0.0     0.0     0.0     0.1     0.2     0.0     0.0     0.0     0.0     0.0     0.0     0.0     0.0     0.1     0.1     0.1     0.0     0.0     0.0     0.2     0.3
 2020 247   142    0.08    0.00    0.09    1174    0.00   114.9   0.000   0.116   0.000   0.147     0.7     0.0     0.9    9074     0.0     744    0.00    0.74    0.00    0.71     0.0     0.0     0.0     0.0     0.0     0.0     0.0     0.0     88.    179.    137.     36.     11.     13.     86.    194.     0.1     0.2     0.1     0.0     0.0     0.0     0.1     0.2     0.0     0.0     0.0     0.0     0.0     0.0     0.0     0.0     0.0     0.1     0.1     0.0     0.0     0.0     0.2     0.3
 2020 248   143    0.08    0.00    0.09    1183    0.00   115.7   0.000   0.116   0.000   0.148     0.7     0.0     1.0    9003     0.0     753    0.00    0.75    0.00    0.73     0.0     0.0     0.0     0.0     0.0     0.0     0.0     0.0     85.    171.    149.     37.     12.     13.     89.    198.     0.1     0.2     0.1     0.0     0.0     0.0     0.1     0.2     0.0     0.0     0.0     0.0     0.0     0.0     0.0     0.0     0.0     0.1     0.1     0.0     0.0     0.0     0.2     0.3
 2020 249   144    0.08    0.00    0.09    1192    0.00   116.4   0.000   0.117   0.000   0.148     0.8     0.0     1.0    8658     0.0     734    0.00    0.73    0.00    0.72     0.0     0.0     0.0     0.0     0.0     0.0     0.0     0.0     78.    161.    150.     37.     12.     13.     88.    196.     0.1     0.2     0.2     0.0     0.0     0.0     0.1     0.2     0.0     0.0     0.0     0.0     0.0     0.0     0.0     0.0     0.0     0.1     0.1     0.0     0.0     0.0     0.2     0.3
 2020 250   145    0.08    0.00    0.09    1200    0.00   117.2   0.000   0.118   0.000   0.149     0.8     0.0     1.1    8857     0.0     790    0.00    0.79    0.00    0.77     0.0     0.0     0.0     0.0     0.0     0.0     0.0     0.0     79.    177.    168.     41.     13.     14.     94.    205.     0.1     0.2     0.2     0.0     0.0     0.0     0.1     0.2     0.0     0.0     0.0     0.0     0.0     0.0     0.0     0.0     0.0     0.1     0.1     0.0     0.0     0.0     0.2     0.3
 2020 251   146    0.08    0.00    0.09    1210    0.00   118.0   0.000   0.119   0.000   0.150     0.8     0.0     1.1    9153     0.0     847    0.00    0.85    0.00    0.82     0.0     0.0     0.0     0.0     0.0     0.0     0.0     0.0     78.    196.    183.     45.     14.     15.    100.    215.     0.1     0.2     0.2     0.0     0.0     0.0     0.1     0.2     0.0     0.0     0.0     0.0     0.0     0.0     0.0     0.0     0.0     0.1     0.1     0.0     0.0     0.0     0.2     0.3
 2020 252   147    0.08    0.00    0.10    1220    0.00   118.7   0.000   0.119   0.000   0.151     0.6     0.0     0.8   10021     0.0     666    0.00    0.67    0.00    0.71     0.0     0.0     0.0     0.0     0.0     0.0     0.0     0.0     26.     76.    175.     44.     14.     15.    100.    215.     0.0     0.1     0.2     0.0     0.0     0.0     0.1     0.2     0.0     0.0     0.0     0.0     0.0     0.0     0.0     0.0     0.0     0.0     0.1     0.0     0.0     0.0     0.2     0.3
 2020 253   148    0.08    0.00    0.10    1229    0.00   119.3   0.000   0.120   0.000   0.151     0.4     0.0     0.5    9389     0.0     616    0.00    0.62    0.00    0.64     0.0     0.0     0.0     0.0     0.0     0.0     0.0     0.0     34.     75.    150.     38.     12.     13.     90.    204.     0.0     0.1     0.2     0.0     0.0     0.0     0.1     0.2     0.0     0.0     0.0     0.0     0.0     0.0     0.0     0.0     0.0     0.0     0.1     0.0     0.0     0.0     0.2     0.3
 2020 254   149    0.08    0.00    0.10    1237    0.00   119.7   0.000   0.120   0.000   0.152     0.3     0.0     0.3    8353     0.0     415    0.00    0.42    0.00    0.49     0.0     0.0     0.0     0.0     0.0     0.0     0.0     0.0     25.     60.     28.     29.      9.     10.     74.    179.     0.0     0.1     0.0     0.0     0.0     0.0     0.1     0.2     0.0     0.0     0.0     0.0     0.0     0.0     0.0     0.0     0.0     0.0     0.0     0.0     0.0     0.0     0.1     0.3
 2020 255   150    0.08    0.00    0.10    1245    0.00   120.1   0.000   0.121   0.000   0.152     0.5     0.0     0.6    7158     0.0     409    0.00    0.41    0.00    0.45     0.0     0.0     0.0     0.0     0.0     0.0     0.0     0.0     30.     66.     37.     37.      8.      9.     63.    161.     0.0     0.1     0.0     0.0     0.0     0.0     0.1     0.2     0.0     0.0     0.0     0.0     0.0     0.0     0.0     0.0     0.0     0.0     0.0     0.0     0.0     0.0     0.1     0.2
 2020 256   151    0.08    0.00    0.10    1251    0.00   120.7   0.000   0.121   0.000   0.153     0.7     0.0     0.9    6282     0.0     531    0.00    0.53    0.00    0.52     0.0     0.0     0.0     0.0     0.0     0.0     0.0     0.0     70.    155.     44.     41.      7.      8.     58.    150.     0.1     0.2     0.0     0.0     0.0     0.0     0.1     0.1     0.0     0.0     0.0     0.0     0.0     0.0     0.0     0.0     0.0     0.1     0.0     0.0     0.0     0.0     0.1     0.2
 2020 257   152    0.08    0.00    0.10    1257    0.00   121.2   0.000   0.122   0.000   0.153     0.7     0.0     0.9    5789     0.0     571    0.00    0.57    0.00    0.53     0.0     0.0     0.0     0.0     0.0     0.0     0.0     0.0     57.    125.    127.     44.      6.      7.     56.    147.     0.1     0.1     0.1     0.0     0.0     0.0     0.1     0.1     0.0     0.0     0.0     0.0     0.0     0.0     0.0     0.0     0.0     0.1     0.1     0.0     0.0     0.0     0.1     0.2
 2020 258   153    0.08    0.00    0.10    1263    0.00   121.9   0.000   0.123   0.000   0.154     0.7     0.0     0.9    6802     0.0     647    0.00    0.65    0.00    0.59     0.0     0.0     0.0     0.0     0.0     0.0     0.0     0.0     65.    140.    141.     58.      8.      9.     64.    164.     0.1     0.1     0.1     0.1     0.0     0.0     0.1     0.2     0.0     0.0     0.0     0.0     0.0     0.0     0.0     0.0     0.0     0.1     0.1     0.0     0.0     0.0     0.1     0.3
 2020 259   154    0.08    0.00    0.10    1272    0.00   122.7   0.000   0.123   0.000   0.155     0.7     0.0     0.9    8242     0.0     786    0.00    0.79    0.00    0.71     0.0     0.0     0.0     0.0     0.0     0.0     0.0     0.0     81.    170.    170.     80.     10.     11.     77.    187.     0.1     0.2     0.2     0.1     0.0     0.0     0.1     0.2     0.0     0.0     0.0     0.0     0.0     0.0     0.0     0.0     0.0     0.1     0.1     0.0     0.0     0.0     0.1     0.3
 2020 260   155    0.09    0.00    0.10    1281    0.00   123.2   0.000   0.124   0.000   0.155     0.3     0.0     0.4    9566     0.0     554    0.00    0.55    0.00    0.60     0.0     0.0     0.0     0.0     0.0     0.0     0.0     0.0     26.     58.     55.    100.     12.     13.     86.    204.     0.0     0.1     0.1     0.1     0.0     0.0     0.1     0.2     0.0     0.0     0.0     0.0     0.0     0.0     0.0     0.0     0.0     0.0     0.0     0.0     0.0     0.0     0.2     0.3
 2020 261   156    0.09    0.00    0.10    1292    0.00   124.3   0.000   0.125   0.000   0.156     0.7     0.0     0.9   10374     0.0    1069    0.00    1.07    0.00    0.89     0.0     0.0     0.0     0.0     0.0     0.0     0.0     0.0    123.    252.    255.    117.     12.     14.     87.    209.     0.1     0.3     0.3     0.1     0.0     0.0     0.1     0.2     0.0     0.0     0.0     0.0     0.0     0.0     0.0     0.0     0.1     0.1     0.1     0.1     0.0     0.0     0.2     0.3
 2020 262   157    0.09    0.00    0.10    1302    0.00   125.2   0.000   0.126   0.000   0.157     0.7     0.0     0.9   10113     0.0     927    0.00    0.93    0.00    0.81     0.0     0.0     0.0     0.0     0.0     0.0     0.0     0.0     96.    195.    199.    127.     12.     13.     83.    204.     0.1     0.2     0.2     0.1     0.0     0.0     0.1     0.2     0.0     0.0     0.0     0.0     0.0     0.0     0.0     0.0     0.0     0.1     0.1     0.1     0.0     0.0     0.2     0.3
 2020 263   158    0.09    0.00    0.10    1312    0.00   126.1   0.000   0.127   0.000   0.158     0.7     0.0     0.9    9837     0.0     859    0.00    0.86    0.00    0.77     0.0     0.0     0.0     0.0     0.0     0.0     0.0     0.0     83.    168.    173.    130.     11.     13.     81.    200.     0.1     0.2     0.2     0.1     0.0     0.0     0.1     0.2     0.0     0.0     0.0     0.0     0.0     0.0     0.0     0.0     0.0     0.1     0.1     0.1     0.0     0.0     0.2     0.3
 2020 264   159    0.09    0.00    0.10    1321    0.00   126.9   0.000   0.128   0.000   0.158     0.8     0.0     1.0    9691     0.0     843    0.00    0.84    0.00    0.76     0.0     0.0     0.0     0.0     0.0     0.0     0.0     0.0     77.    161.    165.    134.     12.     13.     81.    201.     0.1     0.2     0.2     0.1     0.0     0.0     0.1     0.2     0.0     0.0     0.0     0.0     0.0     0.0     0.0     0.0     0.0     0.1     0.1     0.1     0.0     0.0     0.2     0.3
 2020 265   160    0.09    0.00    0.11    1331    0.00   127.8   0.000   0.128   0.000   0.159     0.8     0.0     1.0    9676     0.0     847    0.00    0.85    0.00    0.77     0.0     0.0     0.0     0.0     0.0     0.0     0.0     0.0     72.    161.    165.    139.     12.     13.     82.    203.     0.1     0.2     0.2     0.1     0.0     0.0     0.1     0.2     0.0     0.0     0.0     0.0     0.0     0.0     0.0     0.0     0.0     0.1     0.1     0.1     0.0     0.0     0.2     0.3
 2020 266   161    0.09    0.00    0.11    1341    0.00   128.3   0.000   0.129   0.000   0.160     0.3     0.0     0.4   10110     0.0     582    0.00    0.58    0.00    0.63     0.0     0.0     0.0     0.0     0.0     0.0     0.0     0.0     19.     51.     58.    142.     12.     13.     83.    205.     0.0     0.1     0.1     0.1     0.0     0.0     0.1     0.2     0.0     0.0     0.0     0.0     0.0     0.0     0.0     0.0     0.0     0.0     0.0     0.1     0.0     0.0     0.2     0.3
 2020 267   162    0.09    0.00    0.11    1351    0.00   129.4   0.000   0.130   0.000   0.161     0.7     0.0     0.9   10361     0.0    1022    0.00    1.02    0.00    0.86     0.0     0.0     0.0     0.0     0.0     0.0     0.0     0.0    101.    226.    230.    148.     12.     13.     83.    209.     0.1     0.2     0.2     0.1     0.0     0.0     0.1     0.2     0.0     0.0     0.0     0.0     0.0     0.0     0.0     0.0     0.1     0.1     0.1     0.1     0.0     0.0     0.2     0.3
 2020 268   163    0.09    0.00    0.11    1362    0.00   130.3   0.000   0.131   0.000   0.162     0.7     0.0     0.9   10404     0.0     956    0.00    0.96    0.00    0.83     0.0     0.0     0.0     0.0     0.0     0.0     0.0     0.0     91.    194.    198.    154.     12.     13.     83.    210.     0.1     0.2     0.2     0.2     0.0     0.0     0.1     0.2     0.0     0.0     0.0     0.0     0.0     0.0     0.0     0.0     0.0     0.1     0.1     0.1     0.0     0.0     0.2     0.3
 2020 269   164    0.09    0.00    0.11    1372    0.00   131.3   0.000   0.132   0.000   0.162     0.8     0.0     0.9   10685     0.0     971    0.00    0.97    0.00    0.86     0.0     0.0     0.0     0.0     0.0     0.0     0.0     0.0     92.    190.    194.    165.     13.     14.     86.    216.     0.1     0.2     0.2     0.2     0.0     0.0     0.1     0.2     0.0     0.0     0.0     0.0     0.0     0.0     0.0     0.0     0.0     0.1     0.1     0.1     0.0     0.0     0.2     0.3
 2020 270   165    0.09    0.00    0.11    1383    0.00   132.3   0.000   0.133   0.000   0.163     0.8     0.0     1.0   10877     0.0     989    0.00    0.99    0.00    0.88     0.0     0.0     0.0     0.0     0.0     0.0     0.0     0.0     91.    191.    195.    174.     14.     15.     89.    221.     0.1     0.2     0.2     0.2     0.0     0.0     0.1     0.2     0.0     0.0     0.0     0.0     0.0     0.0     0.0     0.0     0.1     0.1     0.1     0.1     0.0     0.0     0.2     0.3
 2020 271   166    0.09    0.00    0.11    1394    0.00   133.3   0.000   0.134   0.000   0.164     0.8     0.0     1.0   10991     0.0     995    0.00    1.00    0.00    0.89     0.0     0.0     0.0     0.0     0.0     0.0     0.0     0.0     84.    192.    197.    179.     14.     15.     90.    224.     0.1     0.2     0.2     0.2     0.0     0.0     0.1     0.2     0.0     0.0     0.0     0.0     0.0     0.0     0.0     0.0     0.0     0.1     0.1     0.1     0.0     0.0     0.2     0.4
 2020 272   167    0.09    0.00    0.11    1405    0.00   134.2   0.000   0.135   0.000   0.165     0.9     0.0     1.1   10464     0.0     911    0.00    0.91    0.00    0.83     0.0     0.0     0.0     0.0     0.0     0.0     0.0     0.0     67.    173.    178.    165.     13.     14.     85.    215.     0.1     0.2     0.2     0.2     0.0     0.0     0.1     0.2     0.0     0.0     0.0     0.0     0.0     0.0     0.0     0.0     0.0     0.1     0.1     0.1     0.0     0.0     0.2     0.3
 2020 273   168    0.09    0.00    0.11    1415    0.00   135.0   0.000   0.136   0.000   0.166     0.9     0.0     1.1    9702     0.0     830    0.00    0.83    0.00    0.77     0.0     0.0     0.0     0.0     0.0     0.0     0.0     0.0     53.    156.    161.    151.     12.     13.     80.    205.     0.1     0.2     0.2     0.2     0.0     0.0     0.1     0.2     0.0     0.0     0.0     0.0     0.0     0.0     0.0     0.0     0.0     0.1     0.1     0.1     0.0     0.0     0.2     0.3
 2020 274   169    0.10    0.00    0.11    1424    0.00   135.8   0.000   0.137   0.000   0.167     0.9     0.0     1.1    9136     0.0     789    0.00    0.79    0.00    0.74     0.0     0.0     0.0     0.0     0.0     0.0     0.0     0.0     45.    147.    153.    144.     11.     12.     77.    200.     0.0     0.1     0.2     0.1     0.0     0.0     0.1     0.2     0.0     0.0     0.0     0.0     0.0     0.0     0.0     0.0     0.0     0.1     0.1     0.1     0.0     0.0     0.2     0.3
 2020 275   170    0.10    0.00    0.12    1432    0.00   136.5   0.000   0.137   0.000   0.167     0.9     0.0     1.1    8376     0.0     722    0.00    0.72    0.00    0.69     0.0     0.0     0.0     0.0     0.0     0.0     0.0     0.0     37.    132.    138.    131.     10.     11.     72.    191.     0.0     0.1     0.1     0.1     0.0     0.0     0.1     0.2     0.0     0.0     0.0     0.0     0.0     0.0     0.0     0.0     0.0     0.1     0.1     0.1     0.0     0.0     0.1     0.3
 2020 276   171    0.10    0.00    0.12    1440    0.00   137.2   0.000   0.138   0.000   0.168     0.9     0.0     1.1    7492     0.0     645    0.00    0.65    0.00    0.63     0.0     0.0     0.0     0.0     0.0     0.0     0.0     0.0     29.    114.    120.    116.      9.     10.     66.    180.     0.0     0.1     0.1     0.1     0.0     0.0     0.1     0.2     0.0     0.0     0.0     0.0     0.0     0.0     0.0     0.0     0.0     0.1     0.1     0.1     0.0     0.0     0.1     0.3
 2020 277   172    0.10    0.00    0.12    1447    0.00   137.9   0.000   0.139   0.000   0.169     0.9     0.0     1.1    7507     0.0     670    0.00    0.67    0.00    0.65     0.0     0.0     0.0     0.0     0.0     0.0     0.0     0.0     28.    120.    127.    121.     10.     11.     69.    185.     0.0     0.1     0.1     0.1     0.0     0.0     0.1     0.2     0.0     0.0     0.0     0.0     0.0     0.0     0.0     0.0     0.0     0.1     0.1     0.1     0.0     0.0     0.1     0.3
