*N2O emissions output file

*DSSAT Cropping System Model Ver. 4.7.5.035 -develop  JUN 14, 2021 14:17:00

*RUN   1        : 20 IRRIG, PETPEN NO KCB.. MZCER047 KSRT2001    1
 MODEL          : MZCER047 - Maize
 EXPERIMENT     : KSRT2001 SB ARM 2020 KS, IRRIGATED
 DATA PATH      :
 TREATMENT  1   : 20 IRRIG, PETPEN NO KCB.. MZCER047
  
!              |---------------------------------- Cumulative ---------------------------------|---------------------------------- Daily --------------------------------------|
!               N2Oemit  N2emit  NOemit     CO2   Denit  Nitrif   N2O-denit+nit      N2      NO N2Oemit  N2emit  NOemit     CO2   Denit  Nitrif   N2O-denit+nit      N2      NO   Denitrification (g[N]/ha) by soil depth (cm):                   Nitrification (g[N]/ha) by soil depth (cm):                     N2O flux (g[N]/ha) by soil depth (cm):                          N2 flux (g[N]/ha) by soil depth (cm):                           NO flux (g[N]/ha) by soil depth (cm):
!                 kg/ha   kg/ha   kg/ha   kg/ha   kg/ha   kg/ha   kg/ha   kg/ha   kg/ha   kg/ha    g/ha    g/ha    g/ha    g/ha    g/ha    g/ha    g/ha    g/ha    g/ha    g/ha     0-5    5-15   15-29   29-43   43-53   53-64  64-132 132-201     0-5    5-15   15-29   29-43   43-53   53-64  64-132 132-201     0-5    5-15   15-29   29-43   43-53   53-64  64-132 132-201     0-5    5-15   15-29   29-43   43-53   53-64  64-132 132-201     0-5    5-15   15-29   29-43   43-53   53-64  64-132 132-201
@YEAR DOY   DAS   N2OEC    N2EC    NOEC   CO2TC    NDNC    NITC   N2ODC   N2ONC   N2FLC   NOFLC   N2OED    N2ED    NOED   CO2TD    NDND   NITRD   N2ODD   N2OND   N2FLD   NOFLD   NDN1D   NDN2D   NDN3D   NDN4D   NDN5D   NDN6D   NDN7D   NDN8D   NIT1D   NIT2D   NIT3D   NIT4D   NIT5D   NIT6D   NIT7D   NIT8D   N2O1D   N2O2D   N2O3D   N2O4D   N2O5D   N2O6D   N2O7D   N2O8D   N2F1D   N2F2D   N2F3D   N2F4D   N2F5D   N2F6D   N2F7D   N2F8D   NOF1D   NOF2D   NOF3D   NOF4D   NOF5D   NOF6D   NOF7D   NOF8D   
 2020 106     1    0.00    0.00    0.00       6    0.00     0.6   0.000   0.001   0.000   0.001     0.0     0.0     0.0    5549     0.0     644    0.00    0.64    0.00    0.79     0.0     0.0     0.0     0.0     0.0     0.0     0.0     0.0     16.     32.     43.     43.     30.     33.    217.    229.     0.0     0.0     0.0     0.0     0.0     0.0     0.2     0.2     0.0     0.0     0.0     0.0     0.0     0.0     0.0     0.0     0.0     0.0     0.0     0.0     0.0     0.0     0.3     0.3
 2020 107     2    0.00    0.00    0.00      11    0.00     1.3   0.000   0.001   0.000   0.002     0.0     0.0     0.0    5549     0.0     619    0.00    0.62    0.00    0.72     0.0     0.0     0.0     0.0     0.0     0.0     0.0     0.0     22.     44.     52.     51.     29.     32.    190.    199.     0.0     0.0     0.1     0.1     0.0     0.0     0.2     0.2     0.0     0.0     0.0     0.0     0.0     0.0     0.0     0.0     0.0     0.0     0.0     0.0     0.0     0.0     0.3     0.3
 2020 108     3    0.00    0.00    0.00      17    0.00     1.9   0.000   0.002   0.000   0.002     0.0     0.0     0.0    5479     0.0     596    0.00    0.60    0.00    0.67     0.0     0.0     0.0     0.0     0.0     0.0     0.0     0.0     26.     52.     57.     57.     27.     30.    169.    177.     0.0     0.1     0.1     0.1     0.0     0.0     0.2     0.2     0.0     0.0     0.0     0.0     0.0     0.0     0.0     0.0     0.0     0.0     0.0     0.0     0.0     0.0     0.2     0.3
 2020 109     4    0.00    0.00    0.00      22    0.00     2.4   0.000   0.002   0.000   0.003     0.0     0.0     0.0    5230     0.0     562    0.00    0.56    0.00    0.62     0.0     0.0     0.0     0.0     0.0     0.0     0.0     0.0     28.     56.     59.     59.     26.     28.    149.    157.     0.0     0.1     0.1     0.1     0.0     0.0     0.1     0.2     0.0     0.0     0.0     0.0     0.0     0.0     0.0     0.0     0.0     0.0     0.0     0.0     0.0     0.0     0.2     0.2
 2020 110     5    0.00    0.00    0.00      27    0.00     3.0   0.000   0.003   0.000   0.003     0.0     0.0     0.0    5534     0.0     577    0.00    0.58    0.00    0.62     0.0     0.0     0.0     0.0     0.0     0.0     0.0     0.0     32.     63.     66.     66.     26.     29.    144.    151.     0.0     0.1     0.1     0.1     0.0     0.0     0.1     0.2     0.0     0.0     0.0     0.0     0.0     0.0     0.0     0.0     0.0     0.0     0.0     0.0     0.0     0.0     0.2     0.2
 2020 111     6    0.00    0.00    0.00      33    0.00     3.6   0.000   0.004   0.000   0.004     0.0     0.0     0.0    5849     0.0     598    0.00    0.60    0.00    0.62     0.0     0.0     0.0     0.0     0.0     0.0     0.0     0.0     36.     71.     73.     72.     27.     30.    142.    147.     0.0     0.1     0.1     0.1     0.0     0.0     0.1     0.1     0.0     0.0     0.0     0.0     0.0     0.0     0.0     0.0     0.0     0.0     0.0     0.0     0.0     0.0     0.2     0.2
 2020 112     7    0.00    0.00    0.00      39    0.00     4.2   0.000   0.004   0.000   0.006     0.0     0.0     0.0    6286     0.0     635    0.00    0.64    0.00    1.62     0.0     0.0     0.0     0.0     0.0     0.0     0.0     0.0     41.     81.     82.     81.     29.     32.    144.    147.     0.0     0.1     0.1     0.1     0.0     0.0     0.1     0.1     0.0     0.0     0.0     0.0     0.0     0.0     0.0     0.0     0.1     0.1     0.1     0.1     0.1     0.1     0.5     0.5
 2020 113     8    0.00    0.00    0.00      46    0.00     4.9   0.000   0.005   0.000   0.008     0.0     0.0     0.0    6411     0.0     646    0.00    0.65    0.00    2.43     0.0     0.0     0.0     0.0     0.0     0.0     0.0     0.0     43.     86.     86.     85.     29.     32.    141.    143.     0.0     0.1     0.1     0.1     0.0     0.0     0.1     0.1     0.0     0.0     0.0     0.0     0.0     0.0     0.0     0.0     0.1     0.2     0.2     0.2     0.1     0.1     0.8     0.8
 2020 114     9    0.00    0.00    0.00      53    0.00     5.6   0.000   0.006   0.000   0.010     0.0     0.0     0.0    6886     0.0     693    0.00    0.69    0.00    2.08     0.0     0.0     0.0     0.0     0.0     0.0     0.0     0.0     49.     96.     96.     94.     32.     34.    146.    146.     0.0     0.1     0.1     0.1     0.0     0.0     0.1     0.1     0.0     0.0     0.0     0.0     0.0     0.0     0.0     0.0     0.1     0.2     0.2     0.1     0.1     0.1     0.7     0.7
 2020 115    10    0.00    0.00    0.00      60    0.00     6.3   0.000   0.006   0.000   0.012     0.0     0.0     0.1    7222     0.0     729    0.00    0.73    0.00    1.76     0.0     0.0     0.0     0.0     0.0     0.0     0.0     0.0     53.    104.    103.    101.     33.     36.    150.    148.     0.1     0.1     0.1     0.1     0.0     0.0     0.1     0.1     0.0     0.0     0.0     0.0     0.0     0.0     0.0     0.0     0.1     0.1     0.1     0.1     0.1     0.1     0.5     0.5
 2020 116    11    0.00    0.00    0.00      67    0.00     7.0   0.000   0.007   0.000   0.013     0.1     0.0     0.1    6944     0.0     697    0.00    0.70    0.00    1.36     0.0     0.0     0.0     0.0     0.0     0.0     0.0     0.0     51.    100.     99.     97.     32.     34.    142.    142.     0.1     0.1     0.1     0.1     0.0     0.0     0.1     0.1     0.0     0.0     0.0     0.0     0.0     0.0     0.0     0.0     0.1     0.1     0.1     0.1     0.1     0.1     0.4     0.4
 2020 117    12    0.00    0.00    0.00      74    0.00     7.7   0.000   0.008   0.000   0.014     0.1     0.0     0.1    6702     0.0     671    0.00    0.67    0.00    1.07     0.0     0.0     0.0     0.0     0.0     0.0     0.0     0.0     49.     96.     95.     93.     30.     33.    137.    138.     0.0     0.1     0.1     0.1     0.0     0.0     0.1     0.1     0.0     0.0     0.0     0.0     0.0     0.0     0.0     0.0     0.1     0.1     0.1     0.1     0.0     0.1     0.3     0.3
 2020 118    13    0.00    0.00    0.00      81    0.00     8.4   0.000   0.008   0.000   0.015     0.1     0.0     0.1    7351     0.0     741    0.00    0.74    0.00    0.95     0.0     0.0     0.0     0.0     0.0     0.0     0.0     0.0     56.    110.    107.    105.     34.     37.    148.    146.     0.1     0.1     0.1     0.1     0.0     0.0     0.1     0.1     0.0     0.0     0.0     0.0     0.0     0.0     0.0     0.0     0.1     0.1     0.1     0.1     0.0     0.0     0.3     0.3
 2020 119    14    0.00    0.00    0.00      89    0.00     9.2   0.000   0.009   0.000   0.016     0.1     0.0     0.1    8045     0.0     818    0.00    0.82    0.00    0.85     0.0     0.0     0.0     0.0     0.0     0.0     0.0     0.0     60.    125.    122.    118.     38.     41.    161.    155.     0.1     0.1     0.1     0.1     0.0     0.0     0.2     0.2     0.0     0.0     0.0     0.0     0.0     0.0     0.0     0.0     0.1     0.1     0.1     0.1     0.0     0.0     0.3     0.2
 2020 120    15    0.00    0.00    0.00      97    0.00    10.1   0.000   0.010   0.000   0.017     0.1     0.0     0.1    8233     0.0     832    0.00    0.83    0.00    0.80     0.0     0.0     0.0     0.0     0.0     0.0     0.0     0.0     58.    128.    125.    121.     38.     41.    163.    157.     0.1     0.1     0.1     0.1     0.0     0.0     0.2     0.2     0.0     0.0     0.0     0.0     0.0     0.0     0.0     0.0     0.0     0.1     0.1     0.1     0.0     0.0     0.2     0.2
 2020 121    16    0.00    0.00    0.00     106    0.00    10.9   0.000   0.011   0.000   0.018     0.1     0.0     0.1    8754     0.0     892    0.00    0.89    0.00    0.85     0.0     0.0     0.0     0.0     0.0     0.0     0.0     0.0     62.    139.    135.    131.     41.     45.    174.    164.     0.1     0.1     0.1     0.1     0.0     0.0     0.2     0.2     0.0     0.0     0.0     0.0     0.0     0.0     0.0     0.0     0.1     0.1     0.1     0.1     0.0     0.0     0.3     0.2
 2020 122    17    0.00    0.00    0.00     116    0.00    11.9   0.000   0.012   0.000   0.019     0.1     0.0     0.1    9566     0.0     995    0.00    1.00    0.00    0.94     0.0     0.0     0.0     0.0     0.0     0.0     0.0     0.0     71.    159.    154.    148.     46.     50.    191.    177.     0.1     0.2     0.2     0.1     0.0     0.0     0.2     0.2     0.0     0.0     0.0     0.0     0.0     0.0     0.0     0.0     0.1     0.1     0.1     0.1     0.0     0.0     0.3     0.3
 2020 123    18    0.00    0.00    0.00     126    0.00    13.0   0.000   0.013   0.000   0.020     0.1     0.0     0.1   10089     0.0    1050    0.00    1.05    0.00    1.00     0.0     0.0     0.0     0.0     0.0     0.0     0.0     0.0     75.    168.    163.    157.     49.     53.    201.    184.     0.1     0.2     0.2     0.2     0.0     0.1     0.2     0.2     0.0     0.0     0.0     0.0     0.0     0.0     0.0     0.0     0.1     0.1     0.1     0.1     0.0     0.1     0.3     0.3
 2020 124    19    0.00    0.00    0.00     136    0.00    14.0   0.000   0.014   0.000   0.021     0.1     0.0     0.1    9900     0.0     994    0.00    0.99    0.00    0.95     0.0     0.0     0.0     0.0     0.0     0.0     0.0     0.0     70.    156.    152.    147.     46.     50.    193.    179.     0.1     0.2     0.2     0.1     0.0     0.0     0.2     0.2     0.0     0.0     0.0     0.0     0.0     0.0     0.0     0.0     0.1     0.1     0.1     0.1     0.0     0.0     0.3     0.3
 2020 125    20    0.00    0.00    0.00     145    0.00    15.0   0.000   0.015   0.000   0.022     0.1     0.0     0.1    9815     0.0     975    0.00    0.97    0.00    0.93     0.0     0.0     0.0     0.0     0.0     0.0     0.0     0.0     69.    153.    149.    144.     45.     49.    190.    176.     0.1     0.2     0.1     0.1     0.0     0.0     0.2     0.2     0.0     0.0     0.0     0.0     0.0     0.0     0.0     0.0     0.1     0.1     0.1     0.1     0.0     0.0     0.3     0.3
 2020 126    21    0.00    0.00    0.00     155    0.00    16.0   0.000   0.016   0.000   0.023     0.2     0.0     0.1    9951     0.0     993    0.00    0.99    0.00    0.95     0.0     0.0     0.0     0.0     0.0     0.0     0.0     0.0     70.    157.    152.    147.     46.     50.    192.    178.     0.1     0.2     0.2     0.1     0.0     0.0     0.2     0.2     0.0     0.0     0.0     0.0     0.0     0.0     0.0     0.0     0.1     0.1     0.1     0.1     0.0     0.0     0.3     0.3
 2020 127    22    0.00    0.00    0.00     165    0.00    16.9   0.000   0.017   0.000   0.023     0.2     0.0     0.2    9582     0.0     936    0.00    0.94    0.00    0.90     0.0     0.0     0.0     0.0     0.0     0.0     0.0     0.0     65.    146.    142.    138.     44.     47.    183.    172.     0.1     0.1     0.1     0.1     0.0     0.0     0.2     0.2     0.0     0.0     0.0     0.0     0.0     0.0     0.0     0.0     0.1     0.1     0.1     0.1     0.0     0.0     0.3     0.3
 2020 128    23    0.00    0.00    0.00     174    0.00    17.7   0.000   0.018   0.000   0.024     0.2     0.0     0.2    8802     0.0     838    0.00    0.84    0.00    0.81     0.0     0.0     0.0     0.0     0.0     0.0     0.0     0.0     56.    128.    125.    122.     39.     42.    166.    160.     0.1     0.1     0.1     0.1     0.0     0.0     0.2     0.2     0.0     0.0     0.0     0.0     0.0     0.0     0.0     0.0     0.0     0.1     0.1     0.1     0.0     0.0     0.2     0.2
 2020 129    24    0.00    0.00    0.00     183    0.00    18.6   0.000   0.019   0.000   0.025     0.2     0.0     0.2    8828     0.0     855    0.00    0.86    0.00    0.83     0.0     0.0     0.0     0.0     0.0     0.0     0.0     0.0     57.    132.    129.    126.     40.     43.    169.    161.     0.1     0.1     0.1     0.1     0.0     0.0     0.2     0.2     0.0     0.0     0.0     0.0     0.0     0.0     0.0     0.0     0.0     0.1     0.1     0.1     0.0     0.0     0.2     0.2
 2020 130    25    0.00    0.00    0.00     191    0.00    19.4   0.000   0.019   0.000   0.026     0.2     0.0     0.2    8211     0.0     786    0.00    0.79    0.00    0.77     0.0     0.0     0.0     0.0     0.0     0.0     0.0     0.0     51.    119.    117.    114.     36.     39.    157.    152.     0.1     0.1     0.1     0.1     0.0     0.0     0.2     0.2     0.0     0.0     0.0     0.0     0.0     0.0     0.0     0.0     0.0     0.1     0.1     0.1     0.0     0.0     0.2     0.2
 2020 131    26    0.00    0.00    0.00     199    0.00    20.1   0.000   0.020   0.000   0.027     0.2     0.0     0.2    7883     0.0     757    0.00    0.76    0.00    0.74     0.0     0.0     0.0     0.0     0.0     0.0     0.0     0.0     48.    114.    112.    110.     35.     38.    151.    148.     0.0     0.1     0.1     0.1     0.0     0.0     0.2     0.1     0.0     0.0     0.0     0.0     0.0     0.0     0.0     0.0     0.0     0.1     0.1     0.1     0.0     0.0     0.2     0.2
 2020 132    27    0.00    0.00    0.00     206    0.00    20.8   0.000   0.021   0.000   0.029     0.2     0.0     0.2    7397     0.0     710    0.00    0.71    0.00    2.62     0.0     0.0     0.0     0.0     0.0     0.0     0.0     0.0     44.    106.    104.    103.     33.     36.    143.    142.     0.0     0.1     0.1     0.1     0.0     0.0     0.1     0.1     0.0     0.0     0.0     0.0     0.0     0.0     0.0     0.0     0.1     0.2     0.2     0.2     0.1     0.1     0.8     0.8
 2020 133    28    0.00    0.00    0.00     212    0.00    21.5   0.000   0.021   0.000   0.031     0.2     0.0     0.2    6347     0.0     647    0.00    0.65    0.00    1.93     0.0     0.0     0.0     0.0     0.0     0.0     0.0     0.0     73.     88.     87.     87.     28.     31.    126.    128.     0.1     0.1     0.1     0.1     0.0     0.0     0.1     0.1     0.0     0.0     0.0     0.0     0.0     0.0     0.0     0.0     0.2     0.2     0.1     0.1     0.1     0.1     0.6     0.6
 2020 134    29    0.00    0.00    0.00     217    0.00    22.0   0.000   0.022   0.000   0.032     0.2     0.0     0.2    4873     0.0     511    0.00    0.51    0.00    1.27     0.0     0.0     0.0     0.0     0.0     0.0     0.0     0.0     49.     67.     67.     68.     22.     24.    104.    111.     0.0     0.1     0.1     0.1     0.0     0.0     0.1     0.1     0.0     0.0     0.0     0.0     0.0     0.0     0.0     0.0     0.1     0.1     0.1     0.1     0.1     0.1     0.4     0.4
 2020 135    30    0.00    0.00    0.00     222    0.00    22.5   0.000   0.023   0.000   0.033     0.2     0.0     0.2    4947     0.0     510    0.00    0.51    0.00    1.03     0.0     0.0     0.0     0.0     0.0     0.0     0.0     0.0     44.     68.     68.     68.     22.     25.    104.    111.     0.0     0.1     0.1     0.1     0.0     0.0     0.1     0.1     0.0     0.0     0.0     0.0     0.0     0.0     0.0     0.0     0.1     0.1     0.1     0.1     0.0     0.0     0.3     0.3
 2020 136    31    0.00    0.00    0.00     227    0.00    23.0   0.000   0.023   0.000   0.034     0.2     0.0     0.3    5210     0.0     525    0.00    0.53    0.00    0.86     0.0     0.0     0.0     0.0     0.0     0.0     0.0     0.0     42.     71.     71.     71.     23.     25.    108.    114.     0.0     0.1     0.1     0.1     0.0     0.0     0.1     0.1     0.0     0.0     0.0     0.0     0.0     0.0     0.0     0.0     0.1     0.1     0.1     0.1     0.0     0.0     0.3     0.3
 2020 137    32    0.00    0.00    0.00     233    0.00    23.6   0.000   0.024   0.000   0.035     0.3     0.0     0.3    5747     0.0     575    0.00    0.57    0.00    0.76     0.0     0.0     0.0     0.0     0.0     0.0     0.0     0.0     49.     79.     79.     78.     25.     28.    116.    120.     0.0     0.1     0.1     0.1     0.0     0.0     0.1     0.1     0.0     0.0     0.0     0.0     0.0     0.0     0.0     0.0     0.1     0.1     0.1     0.1     0.0     0.0     0.2     0.2
 2020 138    33    0.00    0.00    0.00     240    0.00    24.3   0.000   0.024   0.000   0.036     0.2     0.0     0.2    6929     0.0     700    0.00    0.70    0.00    0.72     0.0     0.0     0.0     0.0     0.0     0.0     0.0     0.0     69.    100.     98.     97.     31.     34.    136.    136.     0.1     0.1     0.1     0.1     0.0     0.0     0.1     0.1     0.0     0.0     0.0     0.0     0.0     0.0     0.0     0.0     0.0     0.1     0.1     0.1     0.0     0.0     0.2     0.2
 2020 139    34    0.00    0.00    0.00     248    0.00    25.2   0.000   0.025   0.000   0.037     0.3     0.0     0.3    8311     0.0     863    0.00    0.86    0.00    0.82     0.0     0.0     0.0     0.0     0.0     0.0     0.0     0.0     82.    131.    127.    123.     39.     42.    163.    156.     0.1     0.1     0.1     0.1     0.0     0.0     0.2     0.2     0.0     0.0     0.0     0.0     0.0     0.0     0.0     0.0     0.1     0.1     0.1     0.1     0.0     0.0     0.2     0.2
 2020 140    35    0.00    0.00    0.00     257    0.00    26.1   0.000   0.026   0.000   0.038     0.3     0.0     0.3    8940     0.0     934    0.00    0.93    0.00    0.89     0.0     0.0     0.0     0.0     0.0     0.0     0.0     0.0     84.    145.    140.    136.     43.     46.    177.    165.     0.1     0.1     0.1     0.1     0.0     0.0     0.2     0.2     0.0     0.0     0.0     0.0     0.0     0.0     0.0     0.0     0.1     0.1     0.1     0.1     0.0     0.0     0.3     0.2
 2020 141    36    0.00    0.00    0.00     267    0.00    27.1   0.000   0.027   0.000   0.038     0.3     0.0     0.3    9187     0.0     950    0.00    0.95    0.00    0.91     0.0     0.0     0.0     0.0     0.0     0.0     0.0     0.0     80.    147.    143.    139.     44.     47.    181.    169.     0.1     0.1     0.1     0.1     0.0     0.0     0.2     0.2     0.0     0.0     0.0     0.0     0.0     0.0     0.0     0.0     0.1     0.1     0.1     0.1     0.0     0.0     0.3     0.2
 2020 142    37    0.00    0.00    0.00     276    0.00    28.0   0.000   0.028   0.000   0.039     0.3     0.0     0.3    9178     0.0     933    0.00    0.93    0.00    0.89     0.0     0.0     0.0     0.0     0.0     0.0     0.0     0.0     76.    144.    140.    136.     43.     46.    180.    168.     0.1     0.1     0.1     0.1     0.0     0.0     0.2     0.2     0.0     0.0     0.0     0.0     0.0     0.0     0.0     0.0     0.1     0.1     0.1     0.1     0.0     0.0     0.3     0.2
 2020 143    38    0.01    0.00    0.01     285    0.00    28.8   0.000   0.029   0.000   0.040     0.2     0.0     0.2    9302     0.0     811    0.00    0.81    0.00    0.79     0.0     0.0     0.0     0.0     0.0     0.0     0.0     0.0     29.     61.    142.    138.     43.     47.    182.    170.     0.0     0.1     0.1     0.1     0.0     0.0     0.2     0.2     0.0     0.0     0.0     0.0     0.0     0.0     0.0     0.0     0.0     0.0     0.1     0.1     0.0     0.0     0.3     0.3
 2020 144    39    0.01    0.00    0.01     294    0.00    29.8   0.000   0.030   0.000   0.041     0.2     0.0     0.2    9316     0.0    1009    0.00    1.01    0.00    0.90     0.0     0.0     0.0     0.0     0.0     0.0     0.0     0.0     99.    189.    141.    137.     43.     47.    182.    170.     0.1     0.2     0.1     0.1     0.0     0.0     0.2     0.2     0.0     0.0     0.0     0.0     0.0     0.0     0.0     0.0     0.1     0.1     0.1     0.1     0.0     0.0     0.3     0.3
 2020 145    40    0.01    0.00    0.01     304    0.00    30.8   0.000   0.031   0.000   0.042     0.3     0.0     0.3    9629     0.0    1015    0.00    1.02    0.00    0.92     0.0     0.0     0.0     0.0     0.0     0.0     0.0     0.0     90.    175.    148.    144.     45.     49.    189.    175.     0.1     0.2     0.1     0.1     0.0     0.0     0.2     0.2     0.0     0.0     0.0     0.0     0.0     0.0     0.0     0.0     0.0     0.1     0.1     0.1     0.0     0.0     0.3     0.3
 2020 146    41    0.01    0.00    0.01     313    0.00   121.5   0.000   0.121   0.000   0.090     3.8     0.0     2.1    9533     0.0   90667    0.00   90.67    0.00   47.57     0.0     0.0     0.0     0.0     0.0     0.0     0.0     0.0  45689.  44243.    144.    140.     44.     48.    186.    173.    45.7    44.2     0.1     0.1     0.0     0.0     0.2     0.2     0.0     0.0     0.0     0.0     0.0     0.0     0.0     0.0    24.0    22.8     0.1     0.1     0.0     0.0     0.3     0.3
 2020 147    42    0.02    0.00    0.01     323    0.00   188.6   0.000   0.189   0.000   0.125     6.5     0.0     3.6    9041     0.0   67093    0.00   67.09    0.00   35.74     0.0     0.0     0.0     0.0     0.0     0.0     0.0     0.0  33284.  33125.    132.    129.     41.     44.    174.    165.    33.3    33.1     0.1     0.1     0.0     0.0     0.2     0.2     0.0     0.0     0.0     0.0     0.0     0.0     0.0     0.0    17.9    17.1     0.1     0.1     0.0     0.0     0.3     0.2
 2020 148    43    0.02    0.00    0.02     331    0.00   231.9   0.000   0.232   0.000   0.149     8.4     0.0     4.6    8928     0.0   43287    0.00   43.29    0.00   23.69     0.0     0.0     0.0     0.0     0.0     0.0     0.0     0.0  21245.  21363.    131.    128.     40.     44.    172.    163.    21.2    21.4     0.1     0.1     0.0     0.0     0.2     0.2     0.0     0.0     0.0     0.0     0.0     0.0     0.0     0.0    12.0    11.0     0.1     0.1     0.0     0.0     0.3     0.2
 2020 149    44    0.03    0.00    0.02     340    0.00   239.6   0.000   0.240   0.000   0.151     2.9     0.0     1.6    8758     0.0    7685    0.00    7.69    0.00    2.52     0.0     0.0     0.0     0.0     0.0     0.0     0.0     0.0   3313.   3706.    128.    125.     40.     43.    169.    161.     3.3     3.7     0.1     0.1     0.0     0.0     0.2     0.2     0.0     0.0     0.0     0.0     0.0     0.0     0.0     0.0     0.8     1.0     0.1     0.1     0.0     0.0     0.3     0.2
 2020 150    45    0.04    0.00    0.02     349    0.00   261.7   0.000   0.262   0.000   0.163     8.7     0.0     4.7    8436     0.0   22171    0.00   22.17    0.00   11.77     0.0     0.0     0.0     0.0     0.0     0.0     0.0     0.0  10009.  11259.    384.    120.     38.     41.    163.    157.    10.0    11.3     0.4     0.1     0.0     0.0     0.2     0.2     0.0     0.0     0.0     0.0     0.0     0.0     0.0     0.0     5.2     5.8     0.2     0.1     0.0     0.0     0.2     0.2
 2020 151    46    0.04    0.00    0.03     357    0.00   275.6   0.000   0.276   0.000   0.171     9.1     0.0     4.9    8733     0.0   13889    0.00   13.89    0.00    7.54     0.0     0.0     0.0     0.0     0.0     0.0     0.0     0.0   5910.   6947.    489.    127.     40.     43.    171.    162.     5.9     6.9     0.5     0.1     0.0     0.0     0.2     0.2     0.0     0.0     0.0     0.0     0.0     0.0     0.0     0.0     3.1     3.6     0.2     0.1     0.0     0.0     0.3     0.2
 2020 152    47    0.05    0.00    0.03     367    0.00   285.6   0.000   0.286   0.000   0.176     9.4     0.0     5.1    9947     0.0    9951    0.00    9.95    0.00    5.61     0.0     0.0     0.0     0.0     0.0     0.0     0.0     0.0   3996.   4793.    524.    155.     49.     52.    200.    182.     4.0     4.8     0.5     0.2     0.0     0.1     0.2     0.2     0.0     0.0     0.0     0.0     0.0     0.0     0.0     0.0     2.1     2.5     0.2     0.1     0.0     0.1     0.3     0.3
 2020 153    48    0.06    0.00    0.04     378    0.00   291.1   0.000   0.291   0.000   0.180     9.7     0.0     5.2   10729     0.0    5500    0.00    5.50    0.00    3.35     0.0     0.0     0.0     0.0     0.0     0.0     0.0     0.0   1933.   2438.    437.    170.     53.     57.    217.    195.     1.9     2.4     0.4     0.2     0.1     0.1     0.2     0.2     0.0     0.0     0.0     0.0     0.0     0.0     0.0     0.0     1.1     1.3     0.2     0.1     0.1     0.1     0.3     0.3
 2020 154    49    0.07    0.00    0.04     390    0.00   294.0   0.000   0.294   0.000   0.182     9.9     0.0     5.4   11651     0.0    2980    0.00    2.98    0.00    2.07     0.0     0.0     0.0     0.0     0.0     0.0     0.0     0.0    779.   1086.    356.    189.     59.     63.    238.    210.     0.8     1.1     0.4     0.2     0.1     0.1     0.2     0.2     0.0     0.0     0.0     0.0     0.0     0.0     0.0     0.0     0.5     0.6     0.2     0.1     0.1     0.1     0.4     0.3
 2020 155    50    0.08    0.00    0.05     402    0.00   295.8   0.000   0.296   0.000   0.183    10.1     0.0     5.4   12390     0.0    1763    0.00    1.76    0.00    1.44     0.0     0.0     0.0     0.0     0.0     0.0     0.0     0.0    251.    426.    285.    199.     62.     67.    251.    221.     0.3     0.4     0.3     0.2     0.1     0.1     0.3     0.2     0.0     0.0     0.0     0.0     0.0     0.0     0.0     0.0     0.2     0.2     0.1     0.1     0.1     0.1     0.4     0.3
 2020 156    51    0.09    0.00    0.05     415    0.00   297.2   0.000   0.297   0.000   0.184    10.1     0.0     5.4   12767     0.0    1398    0.00    1.40    0.00    1.25     0.0     0.0     0.0     0.0     0.0     0.0     0.0     0.0    119.    236.    239.    199.     62.     67.    253.    224.     0.1     0.2     0.2     0.2     0.1     0.1     0.3     0.2     0.0     0.0     0.0     0.0     0.0     0.0     0.0     0.0     0.1     0.1     0.1     0.1     0.1     0.1     0.4     0.3
 2020 157    52    0.10    0.00    0.06     428    0.00   298.5   0.000   0.299   0.000   0.186     9.9     0.0     5.4   12812     0.0    1314    0.00    1.31    0.00    1.20     0.0     0.0     0.0     0.0     0.0     0.0     0.0     0.0    106.    207.    214.    193.     61.     65.    248.    221.     0.1     0.2     0.2     0.2     0.1     0.1     0.2     0.2     0.0     0.0     0.0     0.0     0.0     0.0     0.0     0.0     0.1     0.1     0.1     0.1     0.1     0.1     0.4     0.3
 2020 158    53    0.11    0.00    0.06     441    0.00   299.9   0.000   0.300   0.000   0.187     9.8     0.0     5.3   13101     0.0    1339    0.00    1.34    0.00    1.23     0.0     0.0     0.0     0.0     0.0     0.0     0.0     0.0    105.    208.    216.    200.     63.     67.    254.    225.     0.1     0.2     0.2     0.2     0.1     0.1     0.3     0.2     0.0     0.0     0.0     0.0     0.0     0.0     0.0     0.0     0.1     0.1     0.1     0.1     0.1     0.1     0.4     0.3
 2020 159    54    0.12    0.00    0.07     454    0.00   301.0   0.000   0.301   0.000   0.188     5.8     0.0     3.2   13247     0.0    1150    0.00    1.15    0.00    1.09     0.0     0.0     0.0     0.0     0.0     0.0     0.0     0.0     46.     77.    213.    201.     63.     67.    256.    227.     0.0     0.1     0.2     0.2     0.1     0.1     0.3     0.2     0.0     0.0     0.0     0.0     0.0     0.0     0.0     0.0     0.0     0.0     0.1     0.1     0.1     0.1     0.4     0.3
 2020 160    55    0.13    0.00    0.07     467    0.00   302.3   0.000   0.302   0.000   0.189     7.1     0.0     3.8   13233     0.0    1331    0.00    1.33    0.00    1.20     0.0     0.0     0.0     0.0     0.0     0.0     0.0     0.0    167.    152.    207.    197.     62.     67.    253.    226.     0.2     0.2     0.2     0.2     0.1     0.1     0.3     0.2     0.0     0.0     0.0     0.0     0.0     0.0     0.0     0.0     0.1     0.1     0.1     0.1     0.1     0.1     0.4     0.3
 2020 161    56    0.13    0.00    0.08     481    0.00   303.9   0.000   0.304   0.000   0.194     6.9     0.0     3.8   13409     0.0    1544    0.00    1.54    0.00    4.98     0.0     0.0     0.0     0.0     0.0     0.0     0.0     0.0    106.    403.    209.    204.     64.     69.    259.    230.     0.1     0.4     0.2     0.2     0.1     0.1     0.3     0.2     0.0     0.0     0.0     0.0     0.0     0.0     0.0     0.0     0.2     0.8     0.4     0.4     0.2     0.3     1.4     1.3
 2020 162    57    0.14    0.00    0.08     493    0.00   304.9   0.000   0.305   0.000   0.197     5.6     0.0     3.1   12491     0.0    1010    0.00    1.01    0.00    2.97     0.0     0.0     0.0     0.0     0.0     0.0     0.0     0.0     41.     66.    182.    173.     54.     59.    227.    208.     0.0     0.1     0.2     0.2     0.1     0.1     0.2     0.2     0.0     0.0     0.0     0.0     0.0     0.0     0.0     0.0     0.1     0.1     0.2     0.3     0.2     0.2     1.0     0.9
 2020 163    58    0.15    0.00    0.08     505    0.00   306.0   0.000   0.306   0.000   0.200     6.4     0.0     3.5   11643     0.0    1088    0.00    1.09    0.00    2.47     0.0     0.0     0.0     0.0     0.0     0.0     0.0     0.0    136.    114.    165.    160.     51.     55.    211.    195.     0.1     0.1     0.2     0.2     0.1     0.1     0.2     0.2     0.0     0.0     0.0     0.0     0.0     0.0     0.0     0.0     0.2     0.1     0.2     0.2     0.1     0.1     0.8     0.7
 2020 164    59    0.15    0.00    0.09     516    0.00   307.2   0.000   0.307   0.000   0.202     6.2     0.0     3.5   11366     0.0    1247    0.00    1.25    0.00    2.18     0.0     0.0     0.0     0.0     0.0     0.0     0.0     0.0     96.    313.    167.    162.     51.     55.    211.    194.     0.1     0.3     0.2     0.2     0.1     0.1     0.2     0.2     0.0     0.0     0.0     0.0     0.0     0.0     0.0     0.0     0.1     0.3     0.1     0.2     0.1     0.1     0.6     0.6
 2020 165    60    0.16    0.00    0.09     527    0.00   308.4   0.000   0.308   0.000   0.203     6.1     0.0     3.4   11316     0.0    1151    0.00    1.15    0.00    1.70     0.0     0.0     0.0     0.0     0.0     0.0     0.0     0.0     91.    209.    170.    165.     52.     56.    214.    195.     0.1     0.2     0.2     0.2     0.1     0.1     0.2     0.2     0.0     0.0     0.0     0.0     0.0     0.0     0.0     0.0     0.1     0.2     0.1     0.1     0.1     0.1     0.5     0.5
 2020 166    61    0.16    0.00    0.09     539    0.00   309.5   0.000   0.310   0.000   0.205     6.0     0.0     3.4   11187     0.0    1121    0.00    1.12    0.00    1.36     0.0     0.0     0.0     0.0     0.0     0.0     0.0     0.0     89.    182.    169.    164.     52.     56.    214.    195.     0.1     0.2     0.2     0.2     0.1     0.1     0.2     0.2     0.0     0.0     0.0     0.0     0.0     0.0     0.0     0.0     0.1     0.1     0.1     0.1     0.1     0.1     0.4     0.4
 2020 167    62    0.17    0.00    0.10     551    0.00   310.8   0.000   0.311   0.000   0.206     6.1     0.0     3.4   12020     0.0    1287    0.00    1.29    0.00    1.26     0.0     0.0     0.0     0.0     0.0     0.0     0.0     0.0    102.    210.    200.    193.     60.     64.    243.    215.     0.1     0.2     0.2     0.2     0.1     0.1     0.2     0.2     0.0     0.0     0.0     0.0     0.0     0.0     0.0     0.0     0.1     0.1     0.1     0.1     0.1     0.1     0.4     0.3
 2020 168    63    0.17    0.00    0.10     564    0.00   311.9   0.000   0.312   0.000   0.207     2.8     0.0     1.6   12874     0.0    1136    0.00    1.14    0.00    1.10     0.0     0.0     0.0     0.0     0.0     0.0     0.0     0.0     30.     74.    212.    204.     64.     68.    258.    226.     0.0     0.1     0.2     0.2     0.1     0.1     0.3     0.2     0.0     0.0     0.0     0.0     0.0     0.0     0.0     0.0     0.0     0.0     0.1     0.1     0.1     0.1     0.4     0.3
 2020 169    64    0.18    0.00    0.10     575    0.00   313.5   0.000   0.313   0.000   0.209     5.4     0.0     3.0   11718     0.0    1530    0.00    1.53    0.00    1.32     0.0     0.0     0.0     0.0     0.0     0.0     0.0     0.0    166.    353.    203.    197.     62.     67.    255.    227.     0.2     0.4     0.2     0.2     0.1     0.1     0.3     0.2     0.0     0.0     0.0     0.0     0.0     0.0     0.0     0.0     0.1     0.2     0.1     0.1     0.1     0.1     0.4     0.3
 2020 170    65    0.18    0.00    0.10     587    0.00   314.7   0.000   0.315   0.000   0.210     5.2     0.0     3.0   11778     0.0    1199    0.00    1.20    0.00    1.14     0.0     0.0     0.0     0.0     0.0     0.0     0.0     0.0    105.    206.    203.     79.     62.     66.    252.    225.     0.1     0.2     0.2     0.1     0.1     0.1     0.3     0.2     0.0     0.0     0.0     0.0     0.0     0.0     0.0     0.0     0.1     0.1     0.1     0.0     0.1     0.1     0.4     0.3
 2020 171    66    0.19    0.00    0.11     598    0.00   315.8   0.000   0.316   0.000   0.211     5.2     0.0     3.0   11282     0.0    1116    0.00    1.12    0.00    1.07     0.0     0.0     0.0     0.0     0.0     0.0     0.0     0.0    103.    196.    187.     61.     57.     62.    236.    214.     0.1     0.2     0.2     0.1     0.1     0.1     0.2     0.2     0.0     0.0     0.0     0.0     0.0     0.0     0.0     0.0     0.1     0.1     0.1     0.0     0.1     0.1     0.4     0.3
 2020 172    67    0.19    0.00    0.11     609    0.00   316.8   0.000   0.317   0.000   0.212     5.2     0.0     3.0   10462     0.0     996    0.00    1.00    0.00    0.97     0.0     0.0     0.0     0.0     0.0     0.0     0.0     0.0     81.    172.    168.     54.     52.     56.    216.    199.     0.1     0.2     0.2     0.1     0.1     0.1     0.2     0.2     0.0     0.0     0.0     0.0     0.0     0.0     0.0     0.0     0.0     0.1     0.1     0.0     0.1     0.1     0.3     0.3
 2020 173    68    0.20    0.00    0.11     619    0.00   317.8   0.000   0.318   0.000   0.213     5.3     0.0     3.1   10062     0.0     983    0.00    0.98    0.00    0.96     0.0     0.0     0.0     0.0     0.0     0.0     0.0     0.0     75.    172.    168.     53.     51.     55.    213.    196.     0.1     0.2     0.2     0.1     0.1     0.1     0.2     0.2     0.0     0.0     0.0     0.0     0.0     0.0     0.0     0.0     0.0     0.1     0.1     0.0     0.1     0.1     0.3     0.3
 2020 174    69    0.20    0.00    0.12     629    0.00   318.7   0.000   0.319   0.000   0.214     5.3     0.0     3.1    9790     0.0     979    0.00    0.98    0.00    0.96     0.0     0.0     0.0     0.0     0.0     0.0     0.0     0.0     66.    174.    169.     54.     52.     56.    214.    196.     0.1     0.2     0.2     0.1     0.1     0.1     0.2     0.2     0.0     0.0     0.0     0.0     0.0     0.0     0.0     0.0     0.0     0.1     0.1     0.0     0.1     0.1     0.3     0.3
 2020 175    70    0.21    0.00    0.12     639    0.00   319.6   0.000   0.320   0.000   0.215     3.7     0.0     2.2    9851     0.0     891    0.00    0.89    0.00    0.89     0.0     0.0     0.0     0.0     0.0     0.0     0.0     0.0     22.    159.    160.     51.     49.     53.    206.    190.     0.0     0.2     0.2     0.1     0.0     0.1     0.2     0.2     0.0     0.0     0.0     0.0     0.0     0.0     0.0     0.0     0.0     0.1     0.1     0.0     0.1     0.1     0.3     0.3
 2020 176    71    0.21    0.00    0.12     648    0.00   320.6   0.000   0.321   0.000   0.215     4.1     0.0     2.4    9802     0.0     982    0.00    0.98    0.00    0.95     0.0     0.0     0.0     0.0     0.0     0.0     0.0     0.0     99.    165.    162.     51.     50.     54.    209.    192.     0.1     0.2     0.2     0.1     0.0     0.1     0.2     0.2     0.0     0.0     0.0     0.0     0.0     0.0     0.0     0.0     0.1     0.1     0.1     0.0     0.1     0.1     0.3     0.3
 2020 177    72    0.22    0.00    0.12     659    0.00   321.7   0.000   0.322   0.000   0.217     4.0     0.0     2.4   10564     0.0    1112    0.00    1.11    0.00    1.06     0.0     0.0     0.0     0.0     0.0     0.0     0.0     0.0    105.    196.    190.     59.     57.     62.    234.    209.     0.1     0.2     0.2     0.1     0.1     0.1     0.2     0.2     0.0     0.0     0.0     0.0     0.0     0.0     0.0     0.0     0.1     0.1     0.1     0.0     0.1     0.1     0.4     0.3
 2020 178    73    0.22    0.00    0.12     669    0.00   322.8   0.000   0.323   0.000   0.218     4.1     0.0     2.5   10422     0.0    1132    0.00    1.13    0.00    1.09     0.0     0.0     0.0     0.0     0.0     0.0     0.0     0.0    103.    200.    193.     60.     59.     63.    241.    215.     0.1     0.2     0.2     0.1     0.1     0.1     0.2     0.2     0.0     0.0     0.0     0.0     0.0     0.0     0.0     0.0     0.1     0.1     0.1     0.0     0.1     0.1     0.4     0.3
 2020 179    74    0.22    0.00    0.13     680    0.00   323.9   0.000   0.324   0.000   0.219     4.2     0.0     2.6   10202     0.0    1097    0.00    1.10    0.00    1.08     0.0     0.0     0.0     0.0     0.0     0.0     0.0     0.0     88.    195.    184.     60.     44.     64.    244.    217.     0.1     0.2     0.2     0.1     0.0     0.1     0.2     0.2     0.0     0.0     0.0     0.0     0.0     0.0     0.0     0.0     0.1     0.1     0.1     0.0     0.0     0.1     0.4     0.3
 2020 180    75    0.23    0.00    0.13     690    0.00   325.0   0.000   0.325   0.000   0.220     4.3     0.0     2.6   10076     0.0    1082    0.00    1.08    0.00    1.09     0.0     0.0     0.0     0.0     0.0     0.0     0.0     0.0     75.    184.    179.     62.     41.     66.    251.    223.     0.1     0.2     0.2     0.1     0.0     0.1     0.3     0.2     0.0     0.0     0.0     0.0     0.0     0.0     0.0     0.0     0.0     0.1     0.1     0.0     0.0     0.1     0.4     0.3
 2020 181    76    0.23    0.00    0.13     699    0.00   326.1   0.000   0.326   0.000   0.221     4.2     0.0     2.6    9882     0.0    1057    0.00    1.06    0.00    1.10     0.0     0.0     0.0     0.0     0.0     0.0     0.0     0.0     61.    158.    170.     65.     42.     69.    262.    230.     0.1     0.2     0.2     0.1     0.0     0.1     0.3     0.2     0.0     0.0     0.0     0.0     0.0     0.0     0.0     0.0     0.0     0.1     0.1     0.0     0.0     0.1     0.4     0.3
 2020 182    77    0.24    0.00    0.13     710    0.00   327.1   0.000   0.327   0.000   0.222     2.6     0.0     1.6   10774     0.0     972    0.00    0.97    0.00    1.05     0.0     0.0     0.0     0.0     0.0     0.0     0.0     0.0     26.    134.    140.     65.     41.     70.    263.    232.     0.0     0.1     0.1     0.1     0.0     0.1     0.3     0.2     0.0     0.0     0.0     0.0     0.0     0.0     0.0     0.0     0.0     0.1     0.1     0.0     0.0     0.1     0.4     0.3
 2020 183    78    0.24    0.00    0.14     720    0.00   328.2   0.000   0.328   0.000   0.223     3.1     0.0     2.0   10107     0.0    1096    0.00    1.10    0.00    1.13     0.0     0.0     0.0     0.0     0.0     0.0     0.0     0.0    137.    170.    119.     64.     40.     69.    264.    233.     0.1     0.2     0.1     0.1     0.0     0.1     0.3     0.2     0.0     0.0     0.0     0.0     0.0     0.0     0.0     0.0     0.1     0.1     0.1     0.0     0.0     0.1     0.4     0.4
 2020 184    79    0.24    0.00    0.14     730    0.00   329.1   0.000   0.329   0.000   0.224     3.1     0.0     2.0    9410     0.0     971    0.00    0.97    0.00    1.03     0.0     0.0     0.0     0.0     0.0     0.0     0.0     0.0    107.    135.    110.     60.     37.     45.    252.    224.     0.1     0.1     0.1     0.1     0.0     0.0     0.3     0.2     0.0     0.0     0.0     0.0     0.0     0.0     0.0     0.0     0.1     0.1     0.1     0.0     0.0     0.0     0.4     0.3
 2020 185    80    0.25    0.00    0.14     739    0.00   330.0   0.000   0.330   0.000   0.225     3.5     0.0     2.3    8763     0.0     917    0.00    0.92    0.00    1.02     0.0     0.0     0.0     0.0     0.0     0.0     0.0     0.0     96.    102.    103.     60.     37.     43.    252.    223.     0.1     0.1     0.1     0.1     0.0     0.0     0.3     0.2     0.0     0.0     0.0     0.0     0.0     0.0     0.0     0.0     0.1     0.1     0.1     0.0     0.0     0.0     0.4     0.3
 2020 186    81    0.25    0.00    0.14     747    0.00   330.9   0.000   0.331   0.000   0.226     3.5     0.0     2.3    8264     0.0     844    0.00    0.84    0.00    0.97     0.0     0.0     0.0     0.0     0.0     0.0     0.0     0.0     64.     87.     94.     59.     34.     41.    246.    219.     0.1     0.1     0.1     0.1     0.0     0.0     0.2     0.2     0.0     0.0     0.0     0.0     0.0     0.0     0.0     0.0     0.0     0.1     0.0     0.0     0.0     0.0     0.4     0.3
 2020 187    82    0.25    0.00    0.14     755    0.00   331.7   0.000   0.332   0.000   0.227     3.5     0.0     2.3    7768     0.0     774    0.00    0.77    0.00    0.91     0.0     0.0     0.0     0.0     0.0     0.0     0.0     0.0     55.     73.     79.     55.     30.     37.    235.    211.     0.1     0.1     0.1     0.1     0.0     0.0     0.2     0.2     0.0     0.0     0.0     0.0     0.0     0.0     0.0     0.0     0.0     0.0     0.0     0.0     0.0     0.0     0.4     0.3
 2020 188    83    0.26    0.00    0.15     762    0.00   332.4   0.000   0.332   0.000   0.228     3.4     0.0     2.3    7266     0.0     709    0.00    0.71    0.00    0.85     0.0     0.0     0.0     0.0     0.0     0.0     0.0     0.0     43.     61.     70.     51.     27.     32.    223.    202.     0.0     0.1     0.1     0.1     0.0     0.0     0.2     0.2     0.0     0.0     0.0     0.0     0.0     0.0     0.0     0.0     0.0     0.0     0.0     0.0     0.0     0.0     0.3     0.3
 2020 189    84    0.26    0.00    0.15     769    0.00   333.1   0.000   0.333   0.000   0.229     3.2     0.0     2.2    6820     0.0     706    0.00    0.71    0.00    0.85     0.0     0.0     0.0     0.0     0.0     0.0     0.0     0.0     40.     59.     68.     52.     26.     31.    227.    204.     0.0     0.1     0.1     0.1     0.0     0.0     0.2     0.2     0.0     0.0     0.0     0.0     0.0     0.0     0.0     0.0     0.0     0.0     0.0     0.0     0.0     0.0     0.3     0.3
 2020 190    85    0.26    0.00    0.15     775    0.00   333.7   0.000   0.334   0.000   0.230     3.1     0.0     2.2    6617     0.0     669    0.00    0.67    0.00    0.81     0.0     0.0     0.0     0.0     0.0     0.0     0.0     0.0     33.     55.     64.     51.     25.     29.    209.    202.     0.0     0.1     0.1     0.1     0.0     0.0     0.2     0.2     0.0     0.0     0.0     0.0     0.0     0.0     0.0     0.0     0.0     0.0     0.0     0.0     0.0     0.0     0.3     0.3
 2020 191    86    0.26    0.00    0.15     782    0.00   334.4   0.000   0.334   0.000   0.230     3.0     0.0     2.1    6628     0.0     678    0.00    0.68    0.00    0.82     0.0     0.0     0.0     0.0     0.0     0.0     0.0     0.0     31.     56.     64.     53.     25.     29.    210.    208.     0.0     0.1     0.1     0.1     0.0     0.0     0.2     0.2     0.0     0.0     0.0     0.0     0.0     0.0     0.0     0.0     0.0     0.0     0.0     0.0     0.0     0.0     0.3     0.3
 2020 192    87    0.27    0.00    0.16     788    0.00   335.1   0.000   0.335   0.000   0.231     2.8     0.0     2.1    6510     0.0     659    0.00    0.66    0.00    0.81     0.0     0.0     0.0     0.0     0.0     0.0     0.0     0.0     28.     52.     61.     52.     24.     28.    207.    208.     0.0     0.1     0.1     0.1     0.0     0.0     0.2     0.2     0.0     0.0     0.0     0.0     0.0     0.0     0.0     0.0     0.0     0.0     0.0     0.0     0.0     0.0     0.3     0.3
 2020 193    88    0.27    0.00    0.16     795    0.00   335.7   0.000   0.336   0.000   0.232     2.7     0.0     2.0    6487     0.0     660    0.00    0.66    0.00    0.81     0.0     0.0     0.0     0.0     0.0     0.0     0.0     0.0     26.     52.     60.     52.     24.     28.    209.    210.     0.0     0.1     0.1     0.1     0.0     0.0     0.2     0.2     0.0     0.0     0.0     0.0     0.0     0.0     0.0     0.0     0.0     0.0     0.0     0.0     0.0     0.0     0.3     0.3
 2020 194    89    0.27    0.00    0.16     801    0.00   336.4   0.000   0.336   0.000   0.233     2.6     0.0     2.0    6527     0.0     662    0.00    0.66    0.00    0.82     0.0     0.0     0.0     0.0     0.0     0.0     0.0     0.0     24.     51.     59.     53.     23.     27.    212.    213.     0.0     0.1     0.1     0.1     0.0     0.0     0.2     0.2     0.0     0.0     0.0     0.0     0.0     0.0     0.0     0.0     0.0     0.0     0.0     0.0     0.0     0.0     0.3     0.3
 2020 195    90    0.28    0.00    0.16     808    0.00   337.0   0.000   0.337   0.000   0.234     2.5     0.0     1.9    6477     0.0     650    0.00    0.65    0.00    0.81     0.0     0.0     0.0     0.0     0.0     0.0     0.0     0.0     23.     49.     56.     51.     23.     26.    209.    212.     0.0     0.0     0.1     0.1     0.0     0.0     0.2     0.2     0.0     0.0     0.0     0.0     0.0     0.0     0.0     0.0     0.0     0.0     0.0     0.0     0.0     0.0     0.3     0.3
 2020 196    91    0.28    0.00    0.16     814    0.00   337.7   0.000   0.338   0.000   0.236     2.4     0.0     1.9    6260     0.0     615    0.00    0.61    0.00    2.89     0.0     0.0     0.0     0.0     0.0     0.0     0.0     0.0     22.     46.     51.     48.     21.     24.    199.    205.     0.0     0.0     0.1     0.0     0.0     0.0     0.2     0.2     0.0     0.0     0.0     0.0     0.0     0.0     0.0     0.0     0.1     0.1     0.1     0.1     0.1     0.1     1.1     1.2
 2020 197    92    0.28    0.00    0.17     820    0.00   338.3   0.000   0.338   0.000   0.239     2.1     0.0     1.7    6245     0.0     619    0.00    0.62    0.00    2.35     0.0     0.0     0.0     0.0     0.0     0.0     0.0     0.0     32.     46.     49.     47.     20.     24.    198.    203.     0.0     0.0     0.0     0.0     0.0     0.0     0.2     0.2     0.0     0.0     0.0     0.0     0.0     0.0     0.0     0.0     0.1     0.1     0.1     0.1     0.1     0.1     0.9     0.9
 2020 198    93    0.28    0.00    0.17     826    0.00   338.9   0.000   0.339   0.000   0.241     2.1     0.0     1.7    6078     0.0     603    0.00    0.60    0.00    1.87     0.0     0.0     0.0     0.0     0.0     0.0     0.0     0.0     28.     45.     47.     45.     19.     23.    195.    201.     0.0     0.0     0.0     0.0     0.0     0.0     0.2     0.2     0.0     0.0     0.0     0.0     0.0     0.0     0.0     0.0     0.1     0.1     0.1     0.1     0.1     0.1     0.7     0.7
 2020 199    94    0.28    0.00    0.17     832    0.00   339.5   0.000   0.339   0.000   0.242     2.0     0.0     1.7    5897     0.0     584    0.00    0.58    0.00    1.48     0.0     0.0     0.0     0.0     0.0     0.0     0.0     0.0     24.     44.     44.     44.     19.     22.    190.    198.     0.0     0.0     0.0     0.0     0.0     0.0     0.2     0.2     0.0     0.0     0.0     0.0     0.0     0.0     0.0     0.0     0.0     0.1     0.0     0.0     0.0     0.1     0.6     0.6
 2020 200    95    0.29    0.00    0.17     839    0.00   340.1   0.000   0.340   0.000   0.243     1.7     0.0     1.5    6244     0.0     599    0.00    0.60    0.00    1.22     0.0     0.0     0.0     0.0     0.0     0.0     0.0     0.0     31.     45.     44.     45.     19.     22.    194.    200.     0.0     0.0     0.0     0.0     0.0     0.0     0.2     0.2     0.0     0.0     0.0     0.0     0.0     0.0     0.0     0.0     0.0     0.1     0.0     0.0     0.0     0.0     0.5     0.5
 2020 201    96    0.29    0.00    0.17     846    0.00   340.7   0.000   0.341   0.000   0.244     1.3     0.0     1.1    6895     0.0     630    0.00    0.63    0.00    1.02     0.0     0.0     0.0     0.0     0.0     0.0     0.0     0.0     48.     46.     45.     45.     19.     22.    199.    205.     0.0     0.0     0.0     0.0     0.0     0.0     0.2     0.2     0.0     0.0     0.0     0.0     0.0     0.0     0.0     0.0     0.0     0.0     0.0     0.0     0.0     0.0     0.4     0.4
 2020 202    97    0.29    0.00    0.17     852    0.00   341.4   0.000   0.341   0.000   0.245     1.4     0.0     1.2    6599     0.0     659    0.00    0.66    0.00    0.85     0.0     0.0     0.0     0.0     0.0     0.0     0.0     0.0     85.     45.     44.     44.     18.     21.    197.    205.     0.1     0.0     0.0     0.0     0.0     0.0     0.2     0.2     0.0     0.0     0.0     0.0     0.0     0.0     0.0     0.0     0.1     0.0     0.0     0.0     0.0     0.0     0.3     0.3
 2020 203    98    0.29    0.00    0.17     858    0.00   342.0   0.000   0.342   0.000   0.246     1.6     0.0     1.5    6292     0.0     665    0.00    0.67    0.00    0.81     0.0     0.0     0.0     0.0     0.0     0.0     0.0     0.0     81.     47.     45.     45.     19.     22.    200.    207.     0.1     0.0     0.0     0.0     0.0     0.0     0.2     0.2     0.0     0.0     0.0     0.0     0.0     0.0     0.0     0.0     0.1     0.0     0.0     0.0     0.0     0.0     0.3     0.3
 2020 204    99    0.29    0.00    0.18     865    0.00   342.6   0.000   0.343   0.000   0.247     1.6     0.0     1.5    6155     0.0     621    0.00    0.62    0.00    0.77     0.0     0.0     0.0     0.0     0.0     0.0     0.0     0.0     51.     45.     44.     43.     18.     21.    195.    203.     0.1     0.0     0.0     0.0     0.0     0.0     0.2     0.2     0.0     0.0     0.0     0.0     0.0     0.0     0.0     0.0     0.0     0.0     0.0     0.0     0.0     0.0     0.3     0.3
 2020 205   100    0.29    0.00    0.18     871    0.00   343.2   0.000   0.343   0.000   0.248     1.6     0.0     1.5    6035     0.0     604    0.00    0.60    0.00    0.76     0.0     0.0     0.0     0.0     0.0     0.0     0.0     0.0     42.     44.     43.     42.     17.     20.    193.    201.     0.0     0.0     0.0     0.0     0.0     0.0     0.2     0.2     0.0     0.0     0.0     0.0     0.0     0.0     0.0     0.0     0.0     0.0     0.0     0.0     0.0     0.0     0.3     0.3
 2020 206   101    0.29    0.00    0.18     877    0.00   343.8   0.000   0.344   0.000   0.248     1.5     0.0     1.5    5925     0.0     590    0.00    0.59    0.00    0.74     0.0     0.0     0.0     0.0     0.0     0.0     0.0     0.0     35.     44.     43.     42.     17.     20.    190.    200.     0.0     0.0     0.0     0.0     0.0     0.0     0.2     0.2     0.0     0.0     0.0     0.0     0.0     0.0     0.0     0.0     0.0     0.0     0.0     0.0     0.0     0.0     0.3     0.3
 2020 207   102    0.30    0.00    0.18     883    0.00   344.5   0.000   0.344   0.000   0.249     1.5     0.0     1.5    6034     0.0     614    0.00    0.61    0.00    0.77     0.0     0.0     0.0     0.0     0.0     0.0     0.0     0.0     33.     47.     46.     45.     18.     21.    199.    206.     0.0     0.0     0.0     0.0     0.0     0.0     0.2     0.2     0.0     0.0     0.0     0.0     0.0     0.0     0.0     0.0     0.0     0.0     0.0     0.0     0.0     0.0     0.3     0.3
 2020 208   103    0.30    0.00    0.18     889    0.00   345.1   0.000   0.345   0.000   0.250     1.5     0.0     1.5    6132     0.0     628    0.00    0.63    0.00    0.79     0.0     0.0     0.0     0.0     0.0     0.0     0.0     0.0     31.     49.     48.     46.     18.     21.    204.    211.     0.0     0.0     0.0     0.0     0.0     0.0     0.2     0.2     0.0     0.0     0.0     0.0     0.0     0.0     0.0     0.0     0.0     0.0     0.0     0.0     0.0     0.0     0.3     0.3
 2020 209   104    0.30    0.00    0.18     898    0.00   345.7   0.000   0.346   0.000   0.251     0.7     0.0     0.7    9765     0.0     592    0.00    0.59    0.00    0.76     0.0     0.0     0.0     0.0     0.0     0.0     0.0     0.0     14.     15.     49.     48.     19.     21.    209.    216.     0.0     0.0     0.0     0.0     0.0     0.0     0.2     0.2     0.0     0.0     0.0     0.0     0.0     0.0     0.0     0.0     0.0     0.0     0.0     0.0     0.0     0.0     0.3     0.3
 2020 210   105    0.30    0.00    0.18     908    0.00   346.4   0.000   0.346   0.000   0.251     0.8     0.0     0.8    9857     0.0     697    0.00    0.70    0.00    0.80     0.0     0.0     0.0     0.0     0.0     0.0     0.0     0.0     44.     84.     66.     44.     17.     20.    203.    219.     0.0     0.1     0.1     0.0     0.0     0.0     0.2     0.2     0.0     0.0     0.0     0.0     0.0     0.0     0.0     0.0     0.0     0.0     0.0     0.0     0.0     0.0     0.3     0.3
 2020 211   106    0.30    0.00    0.18     918    0.00   347.3   0.000   0.347   0.000   0.252     1.0     0.0     1.0    9251     0.0     946    0.00    0.95    0.00    0.91     0.0     0.0     0.0     0.0     0.0     0.0     0.0     0.0    141.    264.     74.     41.     16.     18.    187.    206.     0.1     0.3     0.1     0.0     0.0     0.0     0.2     0.2     0.0     0.0     0.0     0.0     0.0     0.0     0.0     0.0     0.1     0.1     0.0     0.0     0.0     0.0     0.3     0.3
 2020 212   107    0.30    0.00    0.18     927    0.00   348.1   0.000   0.348   0.000   0.253     0.9     0.0     0.9    9120     0.0     771    0.00    0.77    0.00    0.81     0.0     0.0     0.0     0.0     0.0     0.0     0.0     0.0     41.    194.     76.     40.     15.     18.    184.    203.     0.0     0.2     0.1     0.0     0.0     0.0     0.2     0.2     0.0     0.0     0.0     0.0     0.0     0.0     0.0     0.0     0.0     0.1     0.0     0.0     0.0     0.0     0.3     0.3
 2020 213   108    0.30    0.00    0.19     935    0.00   348.9   0.000   0.349   0.000   0.254     0.9     0.0     1.0    8479     0.0     787    0.00    0.79    0.00    0.79     0.0     0.0     0.0     0.0     0.0     0.0     0.0     0.0    119.    161.     76.     37.     14.     16.    171.    192.     0.1     0.2     0.1     0.0     0.0     0.0     0.2     0.2     0.0     0.0     0.0     0.0     0.0     0.0     0.0     0.0     0.1     0.1     0.0     0.0     0.0     0.0     0.3     0.3
 2020 214   109    0.30    0.00    0.19     943    0.00   349.6   0.000   0.350   0.000   0.255     1.0     0.0     1.0    7957     0.0     726    0.00    0.73    0.00    0.75     0.0     0.0     0.0     0.0     0.0     0.0     0.0     0.0     88.    151.     73.     35.     13.     15.    164.    186.     0.1     0.2     0.1     0.0     0.0     0.0     0.2     0.2     0.0     0.0     0.0     0.0     0.0     0.0     0.0     0.0     0.0     0.1     0.0     0.0     0.0     0.0     0.2     0.3
 2020 215   110    0.30    0.00    0.19     951    0.00   350.4   0.000   0.350   0.000   0.256     1.0     0.0     1.1    7890     0.0     764    0.00    0.76    0.00    0.79     0.0     0.0     0.0     0.0     0.0     0.0     0.0     0.0     88.    163.     79.     38.     14.     17.    172.    193.     0.1     0.2     0.1     0.0     0.0     0.0     0.2     0.2     0.0     0.0     0.0     0.0     0.0     0.0     0.0     0.0     0.0     0.1     0.0     0.0     0.0     0.0     0.3     0.3
 2020 216   111    0.31    0.00    0.19     959    0.00   351.1   0.000   0.351   0.000   0.256     1.1     0.0     1.1    7634     0.0     762    0.00    0.76    0.00    0.80     0.0     0.0     0.0     0.0     0.0     0.0     0.0     0.0     78.    162.     80.     39.     14.     17.    176.    196.     0.1     0.2     0.1     0.0     0.0     0.0     0.2     0.2     0.0     0.0     0.0     0.0     0.0     0.0     0.0     0.0     0.0     0.1     0.0     0.0     0.0     0.0     0.3     0.3
 2020 217   112    0.31    0.00    0.19     966    0.00   351.8   0.000   0.352   0.000   0.257     0.9     0.0     1.0    7439     0.0     691    0.00    0.69    0.00    0.74     0.0     0.0     0.0     0.0     0.0     0.0     0.0     0.0     60.    138.     72.     36.     13.     16.    166.    189.     0.1     0.1     0.1     0.0     0.0     0.0     0.2     0.2     0.0     0.0     0.0     0.0     0.0     0.0     0.0     0.0     0.0     0.1     0.0     0.0     0.0     0.0     0.3     0.3
 2020 218   113    0.31    0.00    0.19     973    0.00   352.5   0.000   0.353   0.000   0.258     0.9     0.0     1.0    7352     0.0     708    0.00    0.71    0.00    0.76     0.0     0.0     0.0     0.0     0.0     0.0     0.0     0.0     73.    131.     73.     37.     14.     16.    170.    193.     0.1     0.1     0.1     0.0     0.0     0.0     0.2     0.2     0.0     0.0     0.0     0.0     0.0     0.0     0.0     0.0     0.0     0.1     0.0     0.0     0.0     0.0     0.3     0.3
 2020 219   114    0.31    0.00    0.19     980    0.00   353.2   0.000   0.353   0.000   0.259     0.9     0.0     1.0    7040     0.0     701    0.00    0.70    0.00    0.76     0.0     0.0     0.0     0.0     0.0     0.0     0.0     0.0     78.    120.     72.     38.     14.     16.    171.    193.     0.1     0.1     0.1     0.0     0.0     0.0     0.2     0.2     0.0     0.0     0.0     0.0     0.0     0.0     0.0     0.0     0.0     0.1     0.0     0.0     0.0     0.0     0.3     0.3
 2020 220   115    0.31    0.00    0.19     988    0.00   353.9   0.000   0.354   0.000   0.259     0.9     0.0     1.0    7344     0.0     663    0.00    0.66    0.00    0.73     0.0     0.0     0.0     0.0     0.0     0.0     0.0     0.0     72.    102.     68.     36.     13.     16.    166.    189.     0.1     0.1     0.1     0.0     0.0     0.0     0.2     0.2     0.0     0.0     0.0     0.0     0.0     0.0     0.0     0.0     0.0     0.1     0.0     0.0     0.0     0.0     0.3     0.3
 2020 221   116    0.31    0.00    0.19     995    0.00   354.6   0.000   0.355   0.000   0.260     0.9     0.0     1.0    7328     0.0     715    0.00    0.72    0.00    0.77     0.0     0.0     0.0     0.0     0.0     0.0     0.0     0.0     81.    122.     72.     39.     14.     17.    174.    197.     0.1     0.1     0.1     0.0     0.0     0.0     0.2     0.2     0.0     0.0     0.0     0.0     0.0     0.0     0.0     0.0     0.0     0.1     0.0     0.0     0.0     0.0     0.3     0.3
 2020 222   117    0.31    0.00    0.20    1002    0.00   355.4   0.000   0.355   0.000   0.261     1.0     0.0     1.1    7312     0.0     771    0.00    0.77    0.00    0.84     0.0     0.0     0.0     0.0     0.0     0.0     0.0     0.0     92.    131.     78.     42.     15.     18.    187.    207.     0.1     0.1     0.1     0.0     0.0     0.0     0.2     0.2     0.0     0.0     0.0     0.0     0.0     0.0     0.0     0.0     0.1     0.1     0.0     0.0     0.0     0.0     0.3     0.3
 2020 223   118    0.31    0.00    0.20    1010    0.00   356.2   0.000   0.356   0.000   0.262     1.0     0.0     1.2    7130     0.0     780    0.00    0.78    0.00    0.87     0.0     0.0     0.0     0.0     0.0     0.0     0.0     0.0     87.    122.     81.     45.     16.     19.    196.    214.     0.1     0.1     0.1     0.0     0.0     0.0     0.2     0.2     0.0     0.0     0.0     0.0     0.0     0.0     0.0     0.0     0.1     0.1     0.0     0.0     0.0     0.0     0.3     0.3
 2020 224   119    0.31    0.00    0.20    1016    0.00   356.9   0.000   0.357   0.000   0.263     1.1     0.0     1.3    6910     0.0     740    0.00    0.74    0.00    0.85     0.0     0.0     0.0     0.0     0.0     0.0     0.0     0.0     70.     96.     80.     45.     16.     19.    197.    216.     0.1     0.1     0.1     0.0     0.0     0.0     0.2     0.2     0.0     0.0     0.0     0.0     0.0     0.0     0.0     0.0     0.0     0.1     0.0     0.0     0.0     0.0     0.3     0.3
 2020 225   120    0.31    0.00    0.20    1023    0.00   357.6   0.000   0.358   0.000   0.263     1.1     0.0     1.3    6849     0.0     713    0.00    0.71    0.00    0.84     0.0     0.0     0.0     0.0     0.0     0.0     0.0     0.0     56.     79.     77.     46.     17.     19.    199.    218.     0.1     0.1     0.1     0.0     0.0     0.0     0.2     0.2     0.0     0.0     0.0     0.0     0.0     0.0     0.0     0.0     0.0     0.1     0.0     0.0     0.0     0.0     0.3     0.3
 2020 226   121    0.31    0.00    0.20    1030    0.00   358.3   0.000   0.358   0.000   0.264     1.1     0.0     1.3    6643     0.0     671    0.00    0.67    0.00    0.81     0.0     0.0     0.0     0.0     0.0     0.0     0.0     0.0     47.     67.     70.     45.     16.     18.    194.    215.     0.0     0.1     0.1     0.0     0.0     0.0     0.2     0.2     0.0     0.0     0.0     0.0     0.0     0.0     0.0     0.0     0.0     0.0     0.0     0.0     0.0     0.0     0.3     0.3
 2020 227   122    0.32    0.00    0.20    1036    0.00   358.9   0.000   0.359   0.000   0.265     1.1     0.0     1.4    6432     0.0     642    0.00    0.64    0.00    0.79     0.0     0.0     0.0     0.0     0.0     0.0     0.0     0.0     41.     60.     64.     44.     15.     18.    189.    212.     0.0     0.1     0.1     0.0     0.0     0.0     0.2     0.2     0.0     0.0     0.0     0.0     0.0     0.0     0.0     0.0     0.0     0.0     0.0     0.0     0.0     0.0     0.3     0.3
 2020 228   123    0.32    0.00    0.20    1043    0.00   359.5   0.000   0.360   0.000   0.266     1.1     0.0     1.4    6204     0.0     613    0.00    0.61    0.00    0.76     0.0     0.0     0.0     0.0     0.0     0.0     0.0     0.0     33.     55.     60.     42.     15.     17.    183.    208.     0.0     0.1     0.1     0.0     0.0     0.0     0.2     0.2     0.0     0.0     0.0     0.0     0.0     0.0     0.0     0.0     0.0     0.0     0.0     0.0     0.0     0.0     0.3     0.3
 2020 229   124    0.32    0.00    0.20    1049    0.00   360.1   0.000   0.360   0.000   0.267     1.1     0.0     1.4    6034     0.0     598    0.00    0.60    0.00    0.75     0.0     0.0     0.0     0.0     0.0     0.0     0.0     0.0     29.     51.     57.     42.     15.     17.    181.    207.     0.0     0.1     0.1     0.0     0.0     0.0     0.2     0.2     0.0     0.0     0.0     0.0     0.0     0.0     0.0     0.0     0.0     0.0     0.0     0.0     0.0     0.0     0.3     0.3
 2020 230   125    0.32    0.00    0.21    1055    0.00   360.7   0.000   0.361   0.000   0.267     1.0     0.0     1.3    6125     0.0     596    0.00    0.60    0.00    0.74     0.0     0.0     0.0     0.0     0.0     0.0     0.0     0.0     32.     49.     55.     42.     14.     17.    180.    207.     0.0     0.0     0.1     0.0     0.0     0.0     0.2     0.2     0.0     0.0     0.0     0.0     0.0     0.0     0.0     0.0     0.0     0.0     0.0     0.0     0.0     0.0     0.3     0.3
 2020 231   126    0.32    0.00    0.21    1062    0.00   361.3   0.000   0.361   0.000   0.268     0.6     0.0     0.8    7511     0.0     586    0.00    0.59    0.00    0.73     0.0     0.0     0.0     0.0     0.0     0.0     0.0     0.0     16.     49.     54.     43.     15.     17.    183.    210.     0.0     0.0     0.1     0.0     0.0     0.0     0.2     0.2     0.0     0.0     0.0     0.0     0.0     0.0     0.0     0.0     0.0     0.0     0.0     0.0     0.0     0.0     0.3     0.3
 2020 232   127    0.32    0.00    0.21    1070    0.00   362.0   0.000   0.362   0.000   0.269     0.8     0.0     1.0    7340     0.0     719    0.00    0.72    0.00    0.82     0.0     0.0     0.0     0.0     0.0     0.0     0.0     0.0    102.     89.     52.     43.     15.     17.    185.    215.     0.1     0.1     0.1     0.0     0.0     0.0     0.2     0.2     0.0     0.0     0.0     0.0     0.0     0.0     0.0     0.0     0.1     0.1     0.0     0.0     0.0     0.0     0.3     0.3
 2020 233   128    0.32    0.00    0.21    1077    0.00   362.7   0.000   0.363   0.000   0.270     0.8     0.0     1.0    7034     0.0     695    0.00    0.70    0.00    0.80     0.0     0.0     0.0     0.0     0.0     0.0     0.0     0.0     94.     86.     50.     43.     14.     17.    179.    212.     0.1     0.1     0.0     0.0     0.0     0.0     0.2     0.2     0.0     0.0     0.0     0.0     0.0     0.0     0.0     0.0     0.1     0.1     0.0     0.0     0.0     0.0     0.3     0.3
 2020 234   129    0.32    0.00    0.21    1083    0.00   363.4   0.000   0.363   0.000   0.270     0.9     0.0     1.2    6667     0.0     681    0.00    0.68    0.00    0.80     0.0     0.0     0.0     0.0     0.0     0.0     0.0     0.0     87.     81.     49.     43.     14.     16.    179.    211.     0.1     0.1     0.0     0.0     0.0     0.0     0.2     0.2     0.0     0.0     0.0     0.0     0.0     0.0     0.0     0.0     0.1     0.1     0.0     0.0     0.0     0.0     0.3     0.3
 2020 235   130    0.32    0.00    0.21    1090    0.00   364.1   0.000   0.364   0.000   0.271     1.0     0.0     1.3    6334     0.0     651    0.00    0.65    0.00    0.78     0.0     0.0     0.0     0.0     0.0     0.0     0.0     0.0     67.     75.     48.     43.     14.     16.    177.    210.     0.1     0.1     0.0     0.0     0.0     0.0     0.2     0.2     0.0     0.0     0.0     0.0     0.0     0.0     0.0     0.0     0.0     0.1     0.0     0.0     0.0     0.0     0.3     0.3
 2020 236   131    0.32    0.00    0.21    1096    0.00   364.7   0.000   0.365   0.000   0.272     1.0     0.0     1.3    6187     0.0     628    0.00    0.63    0.00    0.77     0.0     0.0     0.0     0.0     0.0     0.0     0.0     0.0     52.     68.     48.     43.     14.     16.    177.    210.     0.1     0.1     0.0     0.0     0.0     0.0     0.2     0.2     0.0     0.0     0.0     0.0     0.0     0.0     0.0     0.0     0.0     0.0     0.0     0.0     0.0     0.0     0.3     0.3
 2020 237   132    0.33    0.00    0.21    1102    0.00   365.3   0.000   0.365   0.000   0.273     1.0     0.0     1.3    6089     0.0     619    0.00    0.62    0.00    0.77     0.0     0.0     0.0     0.0     0.0     0.0     0.0     0.0     45.     63.     47.     44.     14.     16.    178.    212.     0.0     0.1     0.0     0.0     0.0     0.0     0.2     0.2     0.0     0.0     0.0     0.0     0.0     0.0     0.0     0.0     0.0     0.0     0.0     0.0     0.0     0.0     0.3     0.3
 2020 238   133    0.33    0.00    0.21    1110    0.00   365.9   0.000   0.366   0.000   0.274     0.6     0.0     0.7    7629     0.0     598    0.00    0.60    0.00    0.75     0.0     0.0     0.0     0.0     0.0     0.0     0.0     0.0     16.     61.     47.     45.     14.     17.    182.    216.     0.0     0.1     0.0     0.0     0.0     0.0     0.2     0.2     0.0     0.0     0.0     0.0     0.0     0.0     0.0     0.0     0.0     0.0     0.0     0.0     0.0     0.0     0.3     0.3
 2020 239   134    0.33    0.00    0.22    1117    0.00   366.7   0.000   0.367   0.000   0.274     0.7     0.0     1.0    7500     0.0     749    0.00    0.75    0.00    0.85     0.0     0.0     0.0     0.0     0.0     0.0     0.0     0.0    113.    101.     47.     46.     15.     17.    186.    225.     0.1     0.1     0.0     0.0     0.0     0.0     0.2     0.2     0.0     0.0     0.0     0.0     0.0     0.0     0.0     0.0     0.1     0.1     0.0     0.0     0.0     0.0     0.3     0.3
 2020 240   135    0.33    0.00    0.22    1124    0.00   367.4   0.000   0.367   0.000   0.275     0.8     0.0     1.0    7263     0.0     737    0.00    0.74    0.00    0.85     0.0     0.0     0.0     0.0     0.0     0.0     0.0     0.0    105.     95.     48.     47.     15.     17.    185.    224.     0.1     0.1     0.0     0.0     0.0     0.0     0.2     0.2     0.0     0.0     0.0     0.0     0.0     0.0     0.0     0.0     0.1     0.1     0.0     0.0     0.0     0.0     0.3     0.3
 2020 241   136    0.33    0.00    0.22    1131    0.00   368.1   0.000   0.368   0.000   0.276     0.9     0.0     1.2    6912     0.0     714    0.00    0.71    0.00    0.84     0.0     0.0     0.0     0.0     0.0     0.0     0.0     0.0     93.     86.     48.     47.     15.     17.    184.    224.     0.1     0.1     0.0     0.0     0.0     0.0     0.2     0.2     0.0     0.0     0.0     0.0     0.0     0.0     0.0     0.0     0.1     0.1     0.0     0.0     0.0     0.0     0.3     0.3
 2020 242   137    0.33    0.00    0.22    1142    0.00   368.7   0.000   0.369   0.000   0.277     0.7     0.0     0.9   10289     0.0     626    0.00    0.63    0.00    0.76     0.0     0.0     0.0     0.0     0.0     0.0     0.0     0.0     66.     26.     48.     47.     15.     17.    183.    224.     0.1     0.0     0.0     0.0     0.0     0.0     0.2     0.2     0.0     0.0     0.0     0.0     0.0     0.0     0.0     0.0     0.0     0.0     0.0     0.0     0.0     0.0     0.3     0.3
 2020 243   138    0.33    0.00    0.22    1152    0.00   369.4   0.000   0.369   0.000   0.278     0.4     0.0     0.5   10140     0.0     665    0.00    0.67    0.00    0.76     0.0     0.0     0.0     0.0     0.0     0.0     0.0     0.0     30.     85.     83.     43.     14.     15.    174.    223.     0.0     0.1     0.1     0.0     0.0     0.0     0.2     0.2     0.0     0.0     0.0     0.0     0.0     0.0     0.0     0.0     0.0     0.0     0.0     0.0     0.0     0.0     0.3     0.3
 2020 244   139    0.33    0.00    0.22    1162    0.00   370.4   0.000   0.370   0.000   0.279     0.7     0.0     1.0   10055     0.0    1004    0.00    1.00    0.00    0.95     0.0     0.0     0.0     0.0     0.0     0.0     0.0     0.0    141.    295.    101.     43.     14.     15.    173.    221.     0.1     0.3     0.1     0.0     0.0     0.0     0.2     0.2     0.0     0.0     0.0     0.0     0.0     0.0     0.0     0.0     0.1     0.2     0.0     0.0     0.0     0.0     0.3     0.3
 2020 245   140    0.33    0.00    0.22    1172    0.00   371.0   0.000   0.371   0.000   0.279     0.5     0.0     0.7   10765     0.0     635    0.00    0.63    0.00    0.71     0.0     0.0     0.0     0.0     0.0     0.0     0.0     0.0     35.     68.     97.     39.     13.     14.    160.    209.     0.0     0.1     0.1     0.0     0.0     0.0     0.2     0.2     0.0     0.0     0.0     0.0     0.0     0.0     0.0     0.0     0.0     0.0     0.0     0.0     0.0     0.0     0.3     0.3
 2020 246   141    0.33    0.00    0.22    1183    0.00   371.9   0.000   0.372   0.000   0.280     0.7     0.0     0.9   10104     0.0     895    0.00    0.89    0.00    0.84     0.0     0.0     0.0     0.0     0.0     0.0     0.0     0.0    115.    234.    133.     36.     12.     13.    150.    201.     0.1     0.2     0.1     0.0     0.0     0.0     0.1     0.2     0.0     0.0     0.0     0.0     0.0     0.0     0.0     0.0     0.1     0.1     0.1     0.0     0.0     0.0     0.2     0.3
 2020 247   142    0.33    0.00    0.22    1192    0.00   372.7   0.000   0.373   0.000   0.281     0.7     0.0     1.0    9597     0.0     817    0.00    0.82    0.00    0.79     0.0     0.0     0.0     0.0     0.0     0.0     0.0     0.0     89.    181.    143.     36.     11.     13.    146.    198.     0.1     0.2     0.1     0.0     0.0     0.0     0.1     0.2     0.0     0.0     0.0     0.0     0.0     0.0     0.0     0.0     0.0     0.1     0.1     0.0     0.0     0.0     0.2     0.3
 2020 248   143    0.33    0.00    0.22    1202    0.00   373.6   0.000   0.374   0.000   0.282     0.7     0.0     1.0    9501     0.0     829    0.00    0.83    0.00    0.81     0.0     0.0     0.0     0.0     0.0     0.0     0.0     0.0     85.    173.    156.     37.     12.     13.    151.    202.     0.1     0.2     0.2     0.0     0.0     0.0     0.2     0.2     0.0     0.0     0.0     0.0     0.0     0.0     0.0     0.0     0.0     0.1     0.1     0.0     0.0     0.0     0.2     0.3
 2020 249   144    0.33    0.00    0.22    1211    0.00   374.4   0.000   0.374   0.000   0.282     0.8     0.0     1.0    9096     0.0     805    0.00    0.81    0.00    0.79     0.0     0.0     0.0     0.0     0.0     0.0     0.0     0.0     78.    163.    154.     37.     12.     13.    149.    201.     0.1     0.2     0.2     0.0     0.0     0.0     0.1     0.2     0.0     0.0     0.0     0.0     0.0     0.0     0.0     0.0     0.0     0.1     0.1     0.0     0.0     0.0     0.2     0.3
 2020 250   145    0.33    0.00    0.23    1220    0.00   375.2   0.000   0.375   0.000   0.283     0.8     0.0     1.1    9283     0.0     865    0.00    0.86    0.00    0.85     0.0     0.0     0.0     0.0     0.0     0.0     0.0     0.0     79.    179.    167.     41.     13.     14.    161.    212.     0.1     0.2     0.2     0.0     0.0     0.0     0.2     0.2     0.0     0.0     0.0     0.0     0.0     0.0     0.0     0.0     0.0     0.1     0.1     0.0     0.0     0.0     0.3     0.3
 2020 251   146    0.34    0.00    0.23    1230    0.00   376.2   0.000   0.376   0.000   0.284     0.9     0.0     1.1    9538     0.0     924    0.00    0.92    0.00    0.92     0.0     0.0     0.0     0.0     0.0     0.0     0.0     0.0     76.    198.    178.     45.     14.     16.    173.    224.     0.1     0.2     0.2     0.0     0.0     0.0     0.2     0.2     0.0     0.0     0.0     0.0     0.0     0.0     0.0     0.0     0.0     0.1     0.1     0.0     0.0     0.0     0.3     0.3
 2020 252   147    0.34    0.00    0.23    1240    0.00   377.0   0.000   0.377   0.000   0.285     0.6     0.0     0.8   10428     0.0     853    0.00    0.85    0.00    0.87     0.0     0.0     0.0     0.0     0.0     0.0     0.0     0.0     26.    192.    164.     45.     14.     15.    173.    224.     0.0     0.2     0.2     0.0     0.0     0.0     0.2     0.2     0.0     0.0     0.0     0.0     0.0     0.0     0.0     0.0     0.0     0.1     0.1     0.0     0.0     0.0     0.3     0.3
 2020 253   148    0.34    0.00    0.23    1250    0.00   377.7   0.000   0.378   0.000   0.286     0.4     0.0     0.5    9844     0.0     640    0.00    0.64    0.00    0.70     0.0     0.0     0.0     0.0     0.0     0.0     0.0     0.0     31.     51.    134.     38.     12.     13.    153.    208.     0.0     0.1     0.1     0.0     0.0     0.0     0.2     0.2     0.0     0.0     0.0     0.0     0.0     0.0     0.0     0.0     0.0     0.0     0.1     0.0     0.0     0.0     0.2     0.3
 2020 254   149    0.34    0.00    0.23    1259    0.00   378.1   0.000   0.378   0.000   0.286     0.3     0.0     0.3    8624     0.0     453    0.00    0.45    0.00    0.54     0.0     0.0     0.0     0.0     0.0     0.0     0.0     0.0     25.     48.     27.     29.      9.     10.    125.    179.     0.0     0.0     0.0     0.0     0.0     0.0     0.1     0.2     0.0     0.0     0.0     0.0     0.0     0.0     0.0     0.0     0.0     0.0     0.0     0.0     0.0     0.0     0.2     0.3
 2020 255   150    0.34    0.00    0.23    1266    0.00   378.5   0.000   0.379   0.000   0.287     0.5     0.0     0.6    7320     0.0     433    0.00    0.43    0.00    0.49     0.0     0.0     0.0     0.0     0.0     0.0     0.0     0.0     29.     56.     36.     32.      8.      9.    106.    159.     0.0     0.1     0.0     0.0     0.0     0.0     0.1     0.2     0.0     0.0     0.0     0.0     0.0     0.0     0.0     0.0     0.0     0.0     0.0     0.0     0.0     0.0     0.2     0.2
 2020 256   151    0.34    0.00    0.23    1272    0.00   379.2   0.000   0.379   0.000   0.287     0.7     0.0     0.9    6389     0.0     621    0.00    0.62    0.00    0.57     0.0     0.0     0.0     0.0     0.0     0.0     0.0     0.0     71.    136.    121.     35.      7.      8.     96.    148.     0.1     0.1     0.1     0.0     0.0     0.0     0.1     0.1     0.0     0.0     0.0     0.0     0.0     0.0     0.0     0.0     0.0     0.1     0.1     0.0     0.0     0.0     0.2     0.2
 2020 257   152    0.34    0.00    0.23    1278    0.00   379.7   0.000   0.380   0.000   0.288     0.7     0.0     0.9    5920     0.0     565    0.00    0.56    0.00    0.54     0.0     0.0     0.0     0.0     0.0     0.0     0.0     0.0     58.    113.    104.     39.      6.      7.     93.    145.     0.1     0.1     0.1     0.0     0.0     0.0     0.1     0.1     0.0     0.0     0.0     0.0     0.0     0.0     0.0     0.0     0.0     0.1     0.0     0.0     0.0     0.0     0.1     0.2
 2020 258   153    0.34    0.00    0.23    1285    0.00   380.4   0.000   0.380   0.000   0.289     0.7     0.0     0.9    6964     0.0     651    0.00    0.65    0.00    0.62     0.0     0.0     0.0     0.0     0.0     0.0     0.0     0.0     65.    128.    121.     51.      8.      9.    108.    162.     0.1     0.1     0.1     0.1     0.0     0.0     0.1     0.2     0.0     0.0     0.0     0.0     0.0     0.0     0.0     0.0     0.0     0.1     0.1     0.0     0.0     0.0     0.2     0.2
 2020 259   154    0.34    0.00    0.23    1294    0.00   381.2   0.000   0.381   0.000   0.289     0.8     0.0     1.0    8420     0.0     806    0.00    0.81    0.00    0.76     0.0     0.0     0.0     0.0     0.0     0.0     0.0     0.0     81.    160.    153.     71.     10.     11.    132.    188.     0.1     0.2     0.2     0.1     0.0     0.0     0.1     0.2     0.0     0.0     0.0     0.0     0.0     0.0     0.0     0.0     0.0     0.1     0.1     0.0     0.0     0.0     0.2     0.3
 2020 260   155    0.34    0.00    0.23    1303    0.00   381.8   0.000   0.382   0.000   0.290     0.3     0.0     0.4    9897     0.0     613    0.00    0.61    0.00    0.68     0.0     0.0     0.0     0.0     0.0     0.0     0.0     0.0     25.     57.     58.     90.     12.     13.    151.    207.     0.0     0.1     0.1     0.1     0.0     0.0     0.2     0.2     0.0     0.0     0.0     0.0     0.0     0.0     0.0     0.0     0.0     0.0     0.0     0.0     0.0     0.0     0.2     0.3
 2020 261   156    0.34    0.00    0.23    1314    0.00   382.8   0.000   0.383   0.000   0.291     0.7     0.0     0.9   10632     0.0     964    0.00    0.96    0.00    0.88     0.0     0.0     0.0     0.0     0.0     0.0     0.0     0.0    120.    104.    244.    103.     12.     14.    154.    212.     0.1     0.1     0.2     0.1     0.0     0.0     0.2     0.2     0.0     0.0     0.0     0.0     0.0     0.0     0.0     0.0     0.1     0.1     0.1     0.0     0.0     0.0     0.2     0.3
 2020 262   157    0.34    0.00    0.23    1324    0.00   383.8   0.000   0.384   0.000   0.292     0.7     0.0     0.9   10379     0.0    1046    0.00    1.05    0.00    0.91     0.0     0.0     0.0     0.0     0.0     0.0     0.0     0.0     94.    267.    195.    111.     12.     13.    147.    207.     0.1     0.3     0.2     0.1     0.0     0.0     0.1     0.2     0.0     0.0     0.0     0.0     0.0     0.0     0.0     0.0     0.0     0.1     0.1     0.1     0.0     0.0     0.2     0.3
[...]
 2020 238   133    0.33    0.00    0.21    1111    0.00   366.2   0.000   0.367   0.000   0.277     0.6     0.0     0.7    7807     0.0     624    0.00    0.62    0.00    0.78     0.0     0.0     0.0     0.0     0.0     0.0     0.0     0.0     16.     61.     47.     45.     16.     21.    200.    218.     0.0     0.1     0.0     0.0     0.0     0.0     0.2     0.2     0.0     0.0     0.0     0.0     0.0     0.0     0.0     0.0     0.0     0.0     0.0     0.0     0.0     0.0     0.3     0.3
 2020 239   134    0.33    0.00    0.22    1118    0.00   367.0   0.000   0.368   0.000   0.277     0.7     0.0     1.0    7687     0.0     776    0.00    0.78    0.00    0.88     0.0     0.0     0.0     0.0     0.0     0.0     0.0     0.0    112.    101.     47.     46.     16.     22.    206.    226.     0.1     0.1     0.0     0.0     0.0     0.0     0.2     0.2     0.0     0.0     0.0     0.0     0.0     0.0     0.0     0.0     0.1     0.1     0.0     0.0     0.0     0.0     0.3     0.3
 2020 240   135    0.33    0.00    0.22    1126    0.00   367.7   0.000   0.369   0.000   0.278     0.8     0.0     1.0    7520     0.0     765    0.00    0.76    0.00    0.88     0.0     0.0     0.0     0.0     0.0     0.0     0.0     0.0    105.     97.     48.     47.     16.     21.    205.    226.     0.1     0.1     0.0     0.0     0.0     0.0     0.2     0.2     0.0     0.0     0.0     0.0     0.0     0.0     0.0     0.0     0.1     0.1     0.0     0.0     0.0     0.0     0.3     0.3
 2020 241   136    0.33    0.00    0.22    1133    0.00   368.5   0.000   0.369   0.000   0.279     0.9     0.0     1.2    7221     0.0     746    0.00    0.75    0.00    0.88     0.0     0.0     0.0     0.0     0.0     0.0     0.0     0.0     94.     88.     48.     47.     16.     21.    205.    226.     0.1     0.1     0.0     0.0     0.0     0.0     0.2     0.2     0.0     0.0     0.0     0.0     0.0     0.0     0.0     0.0     0.1     0.1     0.0     0.0     0.0     0.0     0.3     0.3
 2020 242   137    0.33    0.00    0.22    1143    0.00   369.1   0.000   0.370   0.000   0.280     0.7     0.0     0.9   10371     0.0     660    0.00    0.66    0.00    0.80     0.0     0.0     0.0     0.0     0.0     0.0     0.0     0.0     70.     27.     48.     47.     16.     21.    205.    226.     0.1     0.0     0.0     0.0     0.0     0.0     0.2     0.2     0.0     0.0     0.0     0.0     0.0     0.0     0.0     0.0     0.0     0.0     0.0     0.0     0.0     0.0     0.3     0.3
 2020 243   138    0.33    0.00    0.22    1154    0.00   369.8   0.000   0.371   0.000   0.281     0.4     0.0     0.5   10157     0.0     693    0.00    0.69    0.00    0.79     0.0     0.0     0.0     0.0     0.0     0.0     0.0     0.0     28.     85.     86.     43.     14.     19.    194.    223.     0.0     0.1     0.1     0.0     0.0     0.0     0.2     0.2     0.0     0.0     0.0     0.0     0.0     0.0     0.0     0.0     0.0     0.0     0.0     0.0     0.0     0.0     0.3     0.3
 2020 244   139    0.33    0.00    0.22    1164    0.00   370.9   0.000   0.372   0.000   0.282     0.7     0.0     1.0   10081     0.0    1032    0.00    1.03    0.00    0.98     0.0     0.0     0.0     0.0     0.0     0.0     0.0     0.0    141.    295.    104.     43.     14.     19.    193.    222.     0.1     0.3     0.1     0.0     0.0     0.0     0.2     0.2     0.0     0.0     0.0     0.0     0.0     0.0     0.0     0.0     0.1     0.2     0.1     0.0     0.0     0.0     0.3     0.3
 2020 245   140    0.33    0.00    0.22    1174    0.00   371.5   0.000   0.372   0.000   0.283     0.6     0.0     0.8   10699     0.0     662    0.00    0.66    0.00    0.74     0.0     0.0     0.0     0.0     0.0     0.0     0.0     0.0     37.     69.     99.     39.     13.     18.    178.    210.     0.0     0.1     0.1     0.0     0.0     0.0     0.2     0.2     0.0     0.0     0.0     0.0     0.0     0.0     0.0     0.0     0.0     0.0     0.0     0.0     0.0     0.0     0.3     0.3
 2020 246   141    0.33    0.00    0.22    1184    0.00   372.4   0.000   0.373   0.000   0.283     0.7     0.0     0.9   10022     0.0     911    0.00    0.91    0.00    0.86     0.0     0.0     0.0     0.0     0.0     0.0     0.0     0.0    113.    233.    134.     36.     12.     16.    166.    201.     0.1     0.2     0.1     0.0     0.0     0.0     0.2     0.2     0.0     0.0     0.0     0.0     0.0     0.0     0.0     0.0     0.1     0.1     0.1     0.0     0.0     0.0     0.3     0.3
 2020 247   142    0.33    0.00    0.22    1194    0.00   373.3   0.000   0.374   0.000   0.284     0.7     0.0     1.0    9566     0.0     834    0.00    0.83    0.00    0.81     0.0     0.0     0.0     0.0     0.0     0.0     0.0     0.0     88.    180.    143.     36.     11.     16.    162.    198.     0.1     0.2     0.1     0.0     0.0     0.0     0.2     0.2     0.0     0.0     0.0     0.0     0.0     0.0     0.0     0.0     0.0     0.1     0.1     0.0     0.0     0.0     0.2     0.3
 2020 248   143    0.33    0.00    0.22    1203    0.00   374.1   0.000   0.375   0.000   0.285     0.7     0.0     1.0    9522     0.0     846    0.00    0.85    0.00    0.83     0.0     0.0     0.0     0.0     0.0     0.0     0.0     0.0     84.    172.    155.     37.     12.     16.    167.    203.     0.1     0.2     0.2     0.0     0.0     0.0     0.2     0.2     0.0     0.0     0.0     0.0     0.0     0.0     0.0     0.0     0.0     0.1     0.1     0.0     0.0     0.0     0.3     0.3
 2020 249   144    0.33    0.00    0.22    1213    0.00   374.9   0.000   0.376   0.000   0.286     0.8     0.0     1.0    9163     0.0     824    0.00    0.82    0.00    0.82     0.0     0.0     0.0     0.0     0.0     0.0     0.0     0.0     77.    161.    154.     37.     12.     16.    165.    201.     0.1     0.2     0.2     0.0     0.0     0.0     0.2     0.2     0.0     0.0     0.0     0.0     0.0     0.0     0.0     0.0     0.0     0.1     0.1     0.0     0.0     0.0     0.3     0.3
 2020 250   145    0.33    0.00    0.23    1222    0.00   375.8   0.000   0.377   0.000   0.287     0.8     0.0     1.1    9404     0.0     886    0.00    0.89    0.00    0.88     0.0     0.0     0.0     0.0     0.0     0.0     0.0     0.0     78.    178.    169.     41.     13.     17.    178.    212.     0.1     0.2     0.2     0.0     0.0     0.0     0.2     0.2     0.0     0.0     0.0     0.0     0.0     0.0     0.0     0.0     0.0     0.1     0.1     0.0     0.0     0.0     0.3     0.3
 2020 251   146    0.34    0.00    0.23    1232    0.00   376.8   0.000   0.378   0.000   0.288     0.9     0.0     1.1    9745     0.0     950    0.00    0.95    0.00    0.95     0.0     0.0     0.0     0.0     0.0     0.0     0.0     0.0     77.    197.    181.     45.     14.     19.    192.    225.     0.1     0.2     0.2     0.0     0.0     0.0     0.2     0.2     0.0     0.0     0.0     0.0     0.0     0.0     0.0     0.0     0.0     0.1     0.1     0.0     0.0     0.0     0.3     0.3
 2020 252   147    0.34    0.00    0.23    1242    0.00   377.6   0.000   0.378   0.000   0.289     0.6     0.0     0.8   10617     0.0     770    0.00    0.77    0.00    0.84     0.0     0.0     0.0     0.0     0.0     0.0     0.0     0.0     26.     81.    169.     45.     14.     19.    192.    225.     0.0     0.1     0.2     0.0     0.0     0.0     0.2     0.2     0.0     0.0     0.0     0.0     0.0     0.0     0.0     0.0     0.0     0.0     0.1     0.0     0.0     0.0     0.3     0.3
 2020 253   148    0.34    0.00    0.23    1252    0.00   378.2   0.000   0.379   0.000   0.289     0.4     0.0     0.5   10017     0.0     692    0.00    0.69    0.00    0.74     0.0     0.0     0.0     0.0     0.0     0.0     0.0     0.0     33.     74.    141.     38.     12.     16.    170.    208.     0.0     0.1     0.1     0.0     0.0     0.0     0.2     0.2     0.0     0.0     0.0     0.0     0.0     0.0     0.0     0.0     0.0     0.0     0.1     0.0     0.0     0.0     0.3     0.3
 2020 254   149    0.34    0.00    0.23    1261    0.00   378.7   0.000   0.380   0.000   0.290     0.3     0.0     0.3    8571     0.0     480    0.00    0.48    0.00    0.56     0.0     0.0     0.0     0.0     0.0     0.0     0.0     0.0     25.     60.     28.     29.      9.     13.    138.    179.     0.0     0.1     0.0     0.0     0.0     0.0     0.1     0.2     0.0     0.0     0.0     0.0     0.0     0.0     0.0     0.0     0.0     0.0     0.0     0.0     0.0     0.0     0.2     0.3
 2020 255   150    0.34    0.00    0.23    1268    0.00   379.2   0.000   0.380   0.000   0.290     0.5     0.0     0.6    7219     0.0     458    0.00    0.46    0.00    0.51     0.0     0.0     0.0     0.0     0.0     0.0     0.0     0.0     29.     65.     36.     34.      8.     10.    117.    159.     0.0     0.1     0.0     0.0     0.0     0.0     0.1     0.2     0.0     0.0     0.0     0.0     0.0     0.0     0.0     0.0     0.0     0.0     0.0     0.0     0.0     0.0     0.2     0.2
 2020 256   151    0.34    0.00    0.23    1274    0.00   379.8   0.000   0.381   0.000   0.291     0.7     0.0     0.9    6263     0.0     651    0.00    0.65    0.00    0.60     0.0     0.0     0.0     0.0     0.0     0.0     0.0     0.0     70.    154.    122.     37.      7.      9.    105.    147.     0.1     0.2     0.1     0.0     0.0     0.0     0.1     0.1     0.0     0.0     0.0     0.0     0.0     0.0     0.0     0.0     0.0     0.1     0.1     0.0     0.0     0.0     0.2     0.2
 2020 257   152    0.34    0.00    0.23    1280    0.00   380.4   0.000   0.381   0.000   0.292     0.7     0.0     0.9    5822     0.0     588    0.00    0.59    0.00    0.56     0.0     0.0     0.0     0.0     0.0     0.0     0.0     0.0     57.    124.    105.     40.      6.      9.    102.    145.     0.1     0.1     0.1     0.0     0.0     0.0     0.1     0.1     0.0     0.0     0.0     0.0     0.0     0.0     0.0     0.0     0.0     0.1     0.0     0.0     0.0     0.0     0.2     0.2
 2020 258   153    0.34    0.00    0.23    1287    0.00   381.1   0.000   0.382   0.000   0.292     0.7     0.0     1.0    6856     0.0     676    0.00    0.68    0.00    0.64     0.0     0.0     0.0     0.0     0.0     0.0     0.0     0.0     64.    138.    121.     53.      8.     10.    119.    162.     0.1     0.1     0.1     0.1     0.0     0.0     0.1     0.2     0.0     0.0     0.0     0.0     0.0     0.0     0.0     0.0     0.0     0.1     0.1     0.0     0.0     0.0     0.2     0.2
 2020 259   154    0.34    0.00    0.23    1295    0.00   381.9   0.000   0.383   0.000   0.293     0.8     0.0     1.0    8300     0.0     834    0.00    0.83    0.00    0.78     0.0     0.0     0.0     0.0     0.0     0.0     0.0     0.0     80.    169.    153.     74.     10.     13.    146.    188.     0.1     0.2     0.2     0.1     0.0     0.0     0.1     0.2     0.0     0.0     0.0     0.0     0.0     0.0     0.0     0.0     0.0     0.1     0.1     0.0     0.0     0.0     0.2     0.3
 2020 260   155    0.34    0.00    0.23    1305    0.00   382.6   0.000   0.383   0.000   0.294     0.3     0.0     0.4    9695     0.0     638    0.00    0.64    0.00    0.71     0.0     0.0     0.0     0.0     0.0     0.0     0.0     0.0     25.     59.     57.     94.     12.     16.    167.    208.     0.0     0.1     0.1     0.1     0.0     0.0     0.2     0.2     0.0     0.0     0.0     0.0     0.0     0.0     0.0     0.0     0.0     0.0     0.0     0.0     0.0     0.0     0.3     0.3
 2020 261   156    0.34    0.00    0.23    1316    0.00   383.7   0.000   0.384   0.000   0.295     0.7     0.0     0.9   10357     0.0    1131    0.00    1.13    0.00    0.98     0.0     0.0     0.0     0.0     0.0     0.0     0.0     0.0    119.    250.    242.    108.     12.     16.    170.    213.     0.1     0.3     0.2     0.1     0.0     0.0     0.2     0.2     0.0     0.0     0.0     0.0     0.0     0.0     0.0     0.0     0.1     0.1     0.1     0.0     0.0     0.0     0.3     0.3
 2020 262   157    0.34    0.00    0.24    1326    0.00   384.7   0.000   0.385   0.000   0.296     0.7     0.0     0.9   10145     0.0     992    0.00    0.99    0.00    0.90     0.0     0.0     0.0     0.0     0.0     0.0     0.0     0.0     94.    194.    193.    115.     12.     15.    162.    207.     0.1     0.2     0.2     0.1     0.0     0.0     0.2     0.2     0.0     0.0     0.0     0.0     0.0     0.0     0.0     0.0     0.0     0.1     0.1     0.1     0.0     0.0     0.3     0.3
 2020 263   158    0.34    0.00    0.24    1336    0.00   385.6   0.000   0.386   0.000   0.296     0.8     0.0     1.0    9902     0.0     924    0.00    0.92    0.00    0.85     0.0     0.0     0.0     0.0     0.0     0.0     0.0     0.0     82.    168.    170.    117.     11.     15.    158.    203.     0.1     0.2     0.2     0.1     0.0     0.0     0.2     0.2     0.0     0.0     0.0     0.0     0.0     0.0     0.0     0.0     0.0     0.1     0.1     0.1     0.0     0.0     0.2     0.3
 2020 264   159    0.34    0.00    0.24    1345    0.00   386.5   0.000   0.387   0.000   0.297     0.8     0.0     1.0    9787     0.0     908    0.00    0.91    0.00    0.85     0.0     0.0     0.0     0.0     0.0     0.0     0.0     0.0     76.    160.    164.    120.     12.     15.    158.    204.     0.1     0.2     0.2     0.1     0.0     0.0     0.2     0.2     0.0     0.0     0.0     0.0     0.0     0.0     0.0     0.0     0.0     0.1     0.1     0.1     0.0     0.0     0.2     0.3
 2020 265   160    0.34    0.00    0.24    1355    0.00   387.4   0.000   0.388   0.000   0.298     0.8     0.0     1.1    9801     0.0     915    0.00    0.91    0.00    0.86     0.0     0.0     0.0     0.0     0.0     0.0     0.0     0.0     71.    160.    164.    125.     12.     15.    161.    207.     0.1     0.2     0.2     0.1     0.0     0.0     0.2     0.2     0.0     0.0     0.0     0.0     0.0     0.0     0.0     0.0     0.0     0.1     0.1     0.1     0.0     0.0     0.3     0.3
 2020 266   161    0.34    0.00    0.24    1365    0.00   388.2   0.000   0.389   0.000   0.299     0.7     0.0     0.9   10353     0.0     770    0.00    0.77    0.00    0.77     0.0     0.0     0.0     0.0     0.0     0.0     0.0     0.0     27.     53.    165.    127.     12.     15.    163.    208.     0.0     0.1     0.2     0.1     0.0     0.0     0.2     0.2     0.0     0.0     0.0     0.0     0.0     0.0     0.0     0.0     0.0     0.0     0.1     0.1     0.0     0.0     0.3     0.3
 2020 267   162    0.35    0.00    0.24    1376    0.00   389.2   0.000   0.390   0.000   0.300     0.7     0.0     0.9   10533     0.0    1021    0.00    1.02    0.00    0.92     0.0     0.0     0.0     0.0     0.0     0.0     0.0     0.0     94.    223.    168.    129.     12.     15.    166.    212.     0.1     0.2     0.2     0.1     0.0     0.0     0.2     0.2     0.0     0.0     0.0     0.0     0.0     0.0     0.0     0.0     0.0     0.1     0.1     0.1     0.0     0.0     0.3     0.3
 2020 268   163    0.35    0.00    0.24    1387    0.00   390.2   0.000   0.391   0.000   0.301     0.7     0.0     0.9   10601     0.0     992    0.00    0.99    0.00    0.91     0.0     0.0     0.0     0.0     0.0     0.0     0.0     0.0     88.    193.    171.    132.     12.     15.    167.    214.     0.1     0.2     0.2     0.1     0.0     0.0     0.2     0.2     0.0     0.0     0.0     0.0     0.0     0.0     0.0     0.0     0.0     0.1     0.1     0.1     0.0     0.0     0.3     0.3
 2020 269   164    0.35    0.00    0.24    1398    0.00   391.3   0.000   0.392   0.000   0.302     0.8     0.0     0.9   10918     0.0    1027    0.00    1.03    0.00    0.95     0.0     0.0     0.0     0.0     0.0     0.0     0.0     0.0     91.    189.    182.    140.     13.     16.    174.    221.     0.1     0.2     0.2     0.1     0.0     0.0     0.2     0.2     0.0     0.0     0.0     0.0     0.0     0.0     0.0     0.0     0.0     0.1     0.1     0.1     0.0     0.0     0.3     0.3
 2020 270   165    0.35    0.00    0.24    1409    0.00   392.3   0.000   0.393   0.000   0.303     0.8     0.0     1.0   11125     0.0    1055    0.00    1.06    0.00    0.98     0.0     0.0     0.0     0.0     0.0     0.0     0.0     0.0     91.    191.    190.    146.     14.     17.    180.    227.     0.1     0.2     0.2     0.1     0.0     0.0     0.2     0.2     0.0     0.0     0.0     0.0     0.0     0.0     0.0     0.0     0.1     0.1     0.1     0.1     0.0     0.0     0.3     0.4
 2020 271   166    0.35    0.00    0.24    1420    0.00   393.4   0.000   0.394   0.000   0.304     0.8     0.0     1.0   11210     0.0    1065    0.00    1.06    0.00    0.99     0.0     0.0     0.0     0.0     0.0     0.0     0.0     0.0     84.    192.    195.    149.     14.     17.    183.    231.     0.1     0.2     0.2     0.1     0.0     0.0     0.2     0.2     0.0     0.0     0.0     0.0     0.0     0.0     0.0     0.0     0.0     0.1     0.1     0.1     0.0     0.0     0.3     0.4
 2020 272   167    0.35    0.00    0.25    1431    0.00   394.3   0.000   0.395   0.000   0.305     0.9     0.0     1.1   10721     0.0     973    0.00    0.97    0.00    0.92     0.0     0.0     0.0     0.0     0.0     0.0     0.0     0.0     66.    173.    177.    136.     13.     16.    172.    221.     0.1     0.2     0.2     0.1     0.0     0.0     0.2     0.2     0.0     0.0     0.0     0.0     0.0     0.0     0.0     0.0     0.0     0.1     0.1     0.1     0.0     0.0     0.3     0.3
 2020 273   168    0.35    0.00    0.25    1440    0.00   395.2   0.000   0.396   0.000   0.305     0.9     0.0     1.1    9900     0.0     886    0.00    0.89    0.00    0.85     0.0     0.0     0.0     0.0     0.0     0.0     0.0     0.0     52.    155.    160.    124.     12.     15.    160.    209.     0.1     0.2     0.2     0.1     0.0     0.0     0.2     0.2     0.0     0.0     0.0     0.0     0.0     0.0     0.0     0.0     0.0     0.1     0.1     0.1     0.0     0.0     0.2     0.3
 2020 274   169    0.35    0.00    0.25    1450    0.00   396.1   0.000   0.397   0.000   0.306     0.9     0.0     1.1    9330     0.0     841    0.00    0.84    0.00    0.82     0.0     0.0     0.0     0.0     0.0     0.0     0.0     0.0     44.    146.    151.    118.     11.     14.    154.    203.     0.0     0.1     0.2     0.1     0.0     0.0     0.2     0.2     0.0     0.0     0.0     0.0     0.0     0.0     0.0     0.0     0.0     0.1     0.1     0.1     0.0     0.0     0.2     0.3
 2020 275   170    0.35    0.00    0.25    1458    0.00   396.8   0.000   0.398   0.000   0.307     1.0     0.0     1.1    8478     0.0     769    0.00    0.77    0.00    0.76     0.0     0.0     0.0     0.0     0.0     0.0     0.0     0.0     36.    131.    136.    107.     10.     13.    143.    193.     0.0     0.1     0.1     0.1     0.0     0.0     0.1     0.2     0.0     0.0     0.0     0.0     0.0     0.0     0.0     0.0     0.0     0.1     0.1     0.0     0.0     0.0     0.2     0.3
 2020 276   171    0.35    0.00    0.25    1466    0.00   397.5   0.000   0.398   0.000   0.308     1.0     0.0     1.1    7525     0.0     682    0.00    0.68    0.00    0.69     0.0     0.0     0.0     0.0     0.0     0.0     0.0     0.0     28.    111.    117.     94.      9.     11.    131.    180.     0.0     0.1     0.1     0.1     0.0     0.0     0.1     0.2     0.0     0.0     0.0     0.0     0.0     0.0     0.0     0.0     0.0     0.1     0.1     0.0     0.0     0.0     0.2     0.3
 2020 277   172    0.35    0.00    0.25    1473    0.00   398.2   0.000   0.399   0.000   0.308     1.0     0.0     1.1    7483     0.0     705    0.00    0.70    0.00    0.71     0.0     0.0     0.0     0.0     0.0     0.0     0.0     0.0     27.    115.    121.     98.     10.     12.    136.    186.     0.0     0.1     0.1     0.1     0.0     0.0     0.1     0.2     0.0     0.0     0.0     0.0     0.0     0.0     0.0     0.0     0.0     0.1     0.1     0.0     0.0     0.0     0.2     0.3
