*N2O emissions output file

*DSSAT Cropping System Model Ver. 4.7.5.035 -develop  JUN 10, 2021 14:49:00

*RUN   1        : 20 IRRIG, light rate,freq MZCER047 KSRT2001    1
 MODEL          : MZCER047 - Maize
 EXPERIMENT     : KSRT2001 SB ARM 2020 KS, IRRIGATED & NON-IRRIGATED
 DATA PATH      :
 TREATMENT  1   : 20 IRRIG, light rate,freq MZCER047
  
!              |---------------------------------- Cumulative ---------------------------------|---------------------------------- Daily --------------------------------------|
!               N2Oemit  N2emit  NOemit     CO2   Denit  Nitrif   N2O-denit+nit      N2      NO N2Oemit  N2emit  NOemit     CO2   Denit  Nitrif   N2O-denit+nit      N2      NO   Denitrification (g[N]/ha) by soil depth (cm):                   Nitrification (g[N]/ha) by soil depth (cm):                     N2O flux (g[N]/ha) by soil depth (cm):                          N2 flux (g[N]/ha) by soil depth (cm):                           NO flux (g[N]/ha) by soil depth (cm):
!                 kg/ha   kg/ha   kg/ha   kg/ha   kg/ha   kg/ha   kg/ha   kg/ha   kg/ha   kg/ha    g/ha    g/ha    g/ha    g/ha    g/ha    g/ha    g/ha    g/ha    g/ha    g/ha     0-5    5-15   15-29   29-43   43-53   53-64  64-132 132-201     0-5    5-15   15-29   29-43   43-53   53-64  64-132 132-201     0-5    5-15   15-29   29-43   43-53   53-64  64-132 132-201     0-5    5-15   15-29   29-43   43-53   53-64  64-132 132-201     0-5    5-15   15-29   29-43   43-53   53-64  64-132 132-201
@YEAR DOY   DAS   N2OEC    N2EC    NOEC   CO2TC    NDNC    NITC   N2ODC   N2ONC   N2FLC   NOFLC   N2OED    N2ED    NOED   CO2TD    NDND   NITRD   N2ODD   N2OND   N2FLD   NOFLD   NDN1D   NDN2D   NDN3D   NDN4D   NDN5D   NDN6D   NDN7D   NDN8D   NIT1D   NIT2D   NIT3D   NIT4D   NIT5D   NIT6D   NIT7D   NIT8D   N2O1D   N2O2D   N2O3D   N2O4D   N2O5D   N2O6D   N2O7D   N2O8D   N2F1D   N2F2D   N2F3D   N2F4D   N2F5D   N2F6D   N2F7D   N2F8D   NOF1D   NOF2D   NOF3D   NOF4D   NOF5D   NOF6D   NOF7D   NOF8D   
 2020 130     1    0.00    0.00    0.00       6    0.00     0.7   0.000   0.001   0.000   0.001     0.0     0.0     0.0    5740     0.0     658    0.00    0.66    0.00    0.81     0.0     0.0     0.0     0.0     0.0     0.0     0.0     0.0     17.     34.     45.     44.     31.     35.    222.    230.     0.0     0.0     0.0     0.0     0.0     0.0     0.2     0.2     0.0     0.0     0.0     0.0     0.0     0.0     0.0     0.0     0.0     0.0     0.0     0.0     0.0     0.0     0.3     0.3
 2020 131     2    0.00    0.00    0.00      12    0.00     1.3   0.000   0.001   0.000   0.002     0.0     0.0     0.0    6071     0.0     666    0.00    0.67    0.00    0.77     0.0     0.0     0.0     0.0     0.0     0.0     0.0     0.0     25.     50.     58.     57.     32.     35.    203.    207.     0.0     0.0     0.1     0.1     0.0     0.0     0.2     0.2     0.0     0.0     0.0     0.0     0.0     0.0     0.0     0.0     0.0     0.0     0.0     0.0     0.0     0.0     0.3     0.3
 2020 132     3    0.00    0.00    0.00      18    0.00     2.0   0.000   0.002   0.000   0.004     0.0     0.0     0.0    6180     0.0     661    0.00    0.66    0.00    2.74     0.0     0.0     0.0     0.0     0.0     0.0     0.0     0.0     31.     62.     67.     66.     31.     34.    183.    186.     0.0     0.1     0.1     0.1     0.0     0.0     0.2     0.2     0.0     0.0     0.0     0.0     0.0     0.0     0.0     0.0     0.1     0.1     0.1     0.1     0.1     0.1     1.0     1.0
 2020 133     4    0.00    0.00    0.00      24    0.00     2.6   0.000   0.003   0.000   0.006     0.0     0.0     0.0    5513     0.0     589    0.00    0.59    0.00    1.93     0.0     0.0     0.0     0.0     0.0     0.0     0.0     0.0     31.     61.     65.     64.     27.     30.    153.    159.     0.0     0.1     0.1     0.1     0.0     0.0     0.2     0.2     0.0     0.0     0.0     0.0     0.0     0.0     0.0     0.0     0.1     0.1     0.1     0.1     0.1     0.1     0.7     0.7
 2020 134     5    0.00    0.00    0.00      28    0.00     3.1   0.000   0.003   0.000   0.008     0.0     0.0     0.0    4751     0.0     516    0.00    0.52    0.00    1.35     0.0     0.0     0.0     0.0     0.0     0.0     0.0     0.0     28.     56.     59.     59.     23.     26.    128.    137.     0.0     0.1     0.1     0.1     0.0     0.0     0.1     0.1     0.0     0.0     0.0     0.0     0.0     0.0     0.0     0.0     0.0     0.1     0.1     0.1     0.1     0.1     0.5     0.5
 2020 135     6    0.00    0.00    0.00      33    0.00     3.6   0.000   0.004   0.000   0.009     0.0     0.0     0.0    4934     0.0     521    0.00    0.52    0.00    1.09     0.0     0.0     0.0     0.0     0.0     0.0     0.0     0.0     30.     60.     62.     62.     23.     26.    125.    132.     0.0     0.1     0.1     0.1     0.0     0.0     0.1     0.1     0.0     0.0     0.0     0.0     0.0     0.0     0.0     0.0     0.0     0.1     0.1     0.1     0.0     0.1     0.4     0.4
 2020 136     7    0.00    0.00    0.00      38    0.00     4.1   0.000   0.004   0.000   0.010     0.0     0.0     0.0    5209     0.0     536    0.00    0.54    0.00    0.90     0.0     0.0     0.0     0.0     0.0     0.0     0.0     0.0     33.     65.     67.     67.     24.     27.    124.    130.     0.0     0.1     0.1     0.1     0.0     0.0     0.1     0.1     0.0     0.0     0.0     0.0     0.0     0.0     0.0     0.0     0.0     0.1     0.1     0.1     0.0     0.0     0.3     0.3
 2020 137     8    0.00    0.00    0.00      44    0.00     4.7   0.000   0.005   0.000   0.010     0.0     0.0     0.0    5759     0.0     578    0.00    0.58    0.00    0.77     0.0     0.0     0.0     0.0     0.0     0.0     0.0     0.0     37.     74.     75.     75.     26.     29.    129.    133.     0.0     0.1     0.1     0.1     0.0     0.0     0.1     0.1     0.0     0.0     0.0     0.0     0.0     0.0     0.0     0.0     0.0     0.1     0.1     0.1     0.0     0.0     0.3     0.3
 2020 138     9    0.00    0.00    0.00      51    0.00     5.4   0.000   0.005   0.000   0.011     0.0     0.0     0.0    6968     0.0     695    0.00    0.69    0.00    0.73     0.0     0.0     0.0     0.0     0.0     0.0     0.0     0.0     49.     96.     96.     94.     32.     35.    148.    146.     0.0     0.1     0.1     0.1     0.0     0.0     0.1     0.1     0.0     0.0     0.0     0.0     0.0     0.0     0.0     0.0     0.0     0.1     0.1     0.1     0.0     0.0     0.2     0.2
 2020 139    10    0.00    0.00    0.00      59    0.00     6.3   0.000   0.006   0.000   0.012     0.0     0.0     0.0    8363     0.0     860    0.00    0.86    0.00    0.82     0.0     0.0     0.0     0.0     0.0     0.0     0.0     0.0     65.    128.    125.    121.     40.     43.    174.    165.     0.1     0.1     0.1     0.1     0.0     0.0     0.2     0.2     0.0     0.0     0.0     0.0     0.0     0.0     0.0     0.0     0.0     0.1     0.1     0.1     0.0     0.0     0.3     0.2
 2020 140    11    0.00    0.00    0.00      68    0.00     7.2   0.000   0.007   0.000   0.013     0.0     0.0     0.0    8976     0.0     934    0.00    0.93    0.00    0.88     0.0     0.0     0.0     0.0     0.0     0.0     0.0     0.0     73.    143.    139.    134.     43.     46.    184.    172.     0.1     0.1     0.1     0.1     0.0     0.0     0.2     0.2     0.0     0.0     0.0     0.0     0.0     0.0     0.0     0.0     0.0     0.1     0.1     0.1     0.0     0.0     0.3     0.3
 2020 141    12    0.00    0.00    0.00      78    0.00     8.2   0.000   0.008   0.000   0.014     0.1     0.0     0.1    9214     0.0     952    0.00    0.95    0.00    0.90     0.0     0.0     0.0     0.0     0.0     0.0     0.0     0.0     75.    146.    142.    138.     44.     47.    186.    173.     0.1     0.1     0.1     0.1     0.0     0.0     0.2     0.2     0.0     0.0     0.0     0.0     0.0     0.0     0.0     0.0     0.0     0.1     0.1     0.1     0.0     0.0     0.3     0.3
 2020 142    13    0.00    0.00    0.00      87    0.00     9.1   0.000   0.009   0.000   0.015     0.1     0.0     0.1    9199     0.0     936    0.00    0.94    0.00    0.88     0.0     0.0     0.0     0.0     0.0     0.0     0.0     0.0     73.    144.    140.    136.     43.     47.    182.    171.     0.1     0.1     0.1     0.1     0.0     0.0     0.2     0.2     0.0     0.0     0.0     0.0     0.0     0.0     0.0     0.0     0.0     0.1     0.1     0.1     0.0     0.0     0.3     0.3
 2020 143    14    0.00    0.00    0.00      96    0.00     9.9   0.000   0.010   0.000   0.015     0.0     0.0     0.0    9326     0.0     798    0.00    0.80    0.00    0.78     0.0     0.0     0.0     0.0     0.0     0.0     0.0     0.0     29.     42.    142.    138.     44.     47.    184.    172.     0.0     0.0     0.1     0.1     0.0     0.0     0.2     0.2     0.0     0.0     0.0     0.0     0.0     0.0     0.0     0.0     0.0     0.0     0.1     0.1     0.0     0.0     0.3     0.3
 2020 144    15    0.00    0.00    0.00     106    0.00    10.8   0.000   0.011   0.000   0.016     0.1     0.0     0.1    9335     0.0     899    0.00    0.90    0.00    0.83     0.0     0.0     0.0     0.0     0.0     0.0     0.0     0.0     97.     78.    141.    137.     43.     47.    183.    172.     0.1     0.1     0.1     0.1     0.0     0.0     0.2     0.2     0.0     0.0     0.0     0.0     0.0     0.0     0.0     0.0     0.1     0.0     0.1     0.1     0.0     0.0     0.3     0.3
 2020 145    16    0.00    0.00    0.00     115    0.00    11.9   0.000   0.012   0.000   0.017     0.1     0.0     0.1    9647     0.0    1089    0.00    1.09    0.00    0.95     0.0     0.0     0.0     0.0     0.0     0.0     0.0     0.0     89.    247.    148.    144.     45.     49.    190.    176.     0.1     0.2     0.1     0.1     0.0     0.0     0.2     0.2     0.0     0.0     0.0     0.0     0.0     0.0     0.0     0.0     0.0     0.1     0.1     0.1     0.0     0.0     0.3     0.3
 2020 146    17    0.00    0.00    0.00     125    0.00    12.9   0.000   0.013   0.000   0.018     0.1     0.0     0.1    9544     0.0    1005    0.00    1.00    0.00    0.90     0.0     0.0     0.0     0.0     0.0     0.0     0.0     0.0     80.    189.    144.    140.     44.     48.    186.    174.     0.1     0.2     0.1     0.1     0.0     0.0     0.2     0.2     0.0     0.0     0.0     0.0     0.0     0.0     0.0     0.0     0.0     0.1     0.1     0.1     0.0     0.0     0.3     0.3
 2020 147    18    0.00    0.00    0.00     134    0.00    13.8   0.000   0.014   0.000   0.019     0.1     0.0     0.1    9050     0.0     907    0.00    0.91    0.00    0.83     0.0     0.0     0.0     0.0     0.0     0.0     0.0     0.0     70.    152.    132.    129.     41.     44.    174.    165.     0.1     0.2     0.1     0.1     0.0     0.0     0.2     0.2     0.0     0.0     0.0     0.0     0.0     0.0     0.0     0.0     0.0     0.1     0.1     0.1     0.0     0.0     0.3     0.2
 2020 148    19    0.00    0.00    0.00     143    0.00    14.7   0.000   0.015   0.000   0.020     0.1     0.0     0.1    8938     0.0     890    0.00    0.89    0.00    0.82     0.0     0.0     0.0     0.0     0.0     0.0     0.0     0.0     69.    142.    131.    128.     41.     44.    173.    164.     0.1     0.1     0.1     0.1     0.0     0.0     0.2     0.2     0.0     0.0     0.0     0.0     0.0     0.0     0.0     0.0     0.0     0.1     0.1     0.1     0.0     0.0     0.3     0.2
 2020 149    20    0.00    0.00    0.00     151    0.00    15.6   0.000   0.016   0.000   0.020     0.1     0.0     0.1    8767     0.0     869    0.00    0.87    0.00    0.81     0.0     0.0     0.0     0.0     0.0     0.0     0.0     0.0     67.    135.    128.    125.     40.     43.    170.    161.     0.1     0.1     0.1     0.1     0.0     0.0     0.2     0.2     0.0     0.0     0.0     0.0     0.0     0.0     0.0     0.0     0.0     0.1     0.1     0.1     0.0     0.0     0.3     0.2
 2020 150    21    0.00    0.00    0.00     160    0.00    16.4   0.000   0.016   0.000   0.021     0.1     0.0     0.1    8424     0.0     828    0.00    0.83    0.00    0.77     0.0     0.0     0.0     0.0     0.0     0.0     0.0     0.0     63.    126.    122.    119.     38.     41.    163.    156.     0.1     0.1     0.1     0.1     0.0     0.0     0.2     0.2     0.0     0.0     0.0     0.0     0.0     0.0     0.0     0.0     0.0     0.1     0.1     0.1     0.0     0.0     0.2     0.2
 2020 151    22    0.00    0.00    0.00     169    0.00    17.3   0.000   0.017   0.000   0.022     0.2     0.0     0.1    8721     0.0     872    0.00    0.87    0.00    0.81     0.0     0.0     0.0     0.0     0.0     0.0     0.0     0.0     67.    134.    130.    127.     40.     43.    170.    162.     0.1     0.1     0.1     0.1     0.0     0.0     0.2     0.2     0.0     0.0     0.0     0.0     0.0     0.0     0.0     0.0     0.0     0.1     0.1     0.1     0.0     0.0     0.3     0.2
 2020 152    23    0.00    0.00    0.00     179    0.00    17.9   0.000   0.018   0.000   0.023     0.0     0.0     0.0    9931     0.0     617    0.00    0.62    0.00    0.68     0.0     0.0     0.0     0.0     0.0     0.0     0.0     0.0     23.     49.     40.     39.     33.     52.    199.    182.     0.0     0.0     0.0     0.0     0.0     0.1     0.2     0.2     0.0     0.0     0.0     0.0     0.0     0.0     0.0     0.0     0.0     0.0     0.0     0.0     0.0     0.1     0.3     0.3
 2020 153    24    0.00    0.00    0.00     189    0.00    19.2   0.000   0.019   0.000   0.024     0.1     0.0     0.1   10782     0.0    1278    0.00    1.28    0.00    1.09     0.0     0.0     0.0     0.0     0.0     0.0     0.0     0.0    136.    262.    255.     86.     63.     58.    220.    198.     0.1     0.3     0.3     0.1     0.1     0.1     0.2     0.2     0.0     0.0     0.0     0.0     0.0     0.0     0.0     0.0     0.1     0.1     0.1     0.0     0.1     0.1     0.3     0.3
 2020 154    25    0.00    0.00    0.00     201    0.00    20.7   0.000   0.021   0.000   0.025     0.2     0.0     0.1   11713     0.0    1497    0.00    1.50    0.00    1.23     0.0     0.0     0.0     0.0     0.0     0.0     0.0     0.0    119.    233.    229.    335.     64.     64.    241.    214.     0.1     0.2     0.2     0.3     0.1     0.1     0.2     0.2     0.0     0.0     0.0     0.0     0.0     0.0     0.0     0.0     0.1     0.1     0.1     0.1     0.1     0.1     0.4     0.3
 2020 155    26    0.00    0.00    0.00     214    0.00    22.1   0.000   0.022   0.000   0.026     0.2     0.0     0.1   12471     0.0    1406    0.00    1.41    0.00    1.21     0.0     0.0     0.0     0.0     0.0     0.0     0.0     0.0    112.    221.    216.    246.     64.     67.    255.    225.     0.1     0.2     0.2     0.2     0.1     0.1     0.3     0.2     0.0     0.0     0.0     0.0     0.0     0.0     0.0     0.0     0.1     0.1     0.1     0.1     0.1     0.1     0.4     0.3
 2020 156    27    0.00    0.00    0.00     226    0.00    23.4   0.000   0.023   0.000   0.027     0.2     0.0     0.1   12859     0.0    1350    0.00    1.35    0.00    1.19     0.0     0.0     0.0     0.0     0.0     0.0     0.0     0.0    107.    213.    207.    209.     63.     67.    256.    228.     0.1     0.2     0.2     0.2     0.1     0.1     0.3     0.2     0.0     0.0     0.0     0.0     0.0     0.0     0.0     0.0     0.1     0.1     0.1     0.1     0.1     0.1     0.4     0.3
 2020 157    28    0.00    0.00    0.00     239    0.00    24.7   0.000   0.025   0.000   0.029     0.2     0.0     0.1   12911     0.0    1307    0.00    1.31    0.00    1.17     0.0     0.0     0.0     0.0     0.0     0.0     0.0     0.0    104.    206.    200.    195.     61.     66.    251.    225.     0.1     0.2     0.2     0.2     0.1     0.1     0.3     0.2     0.0     0.0     0.0     0.0     0.0     0.0     0.0     0.0     0.1     0.1     0.1     0.1     0.1     0.1     0.4     0.3
 2020 158    29    0.00    0.00    0.00     253    0.00    26.1   0.000   0.026   0.000   0.030     0.2     0.0     0.2   13207     0.0    1340    0.00    1.34    0.00    1.20     0.0     0.0     0.0     0.0     0.0     0.0     0.0     0.0    104.    208.    209.    202.     63.     68.    257.    229.     0.1     0.2     0.2     0.2     0.1     0.1     0.3     0.2     0.0     0.0     0.0     0.0     0.0     0.0     0.0     0.0     0.1     0.1     0.1     0.1     0.1     0.1     0.4     0.3
 2020 159    30    0.00    0.00    0.00     266    0.00    27.4   0.000   0.027   0.000   0.031     0.3     0.0     0.2   13356     0.0    1347    0.00    1.35    0.00    1.21     0.0     0.0     0.0     0.0     0.0     0.0     0.0     0.0    106.    210.    209.    202.     63.     68.    259.    231.     0.1     0.2     0.2     0.2     0.1     0.1     0.3     0.2     0.0     0.0     0.0     0.0     0.0     0.0     0.0     0.0     0.1     0.1     0.1     0.1     0.1     0.1     0.4     0.3
 2020 160    31    0.00    0.00    0.00     279    0.00    28.7   0.000   0.029   0.000   0.032     0.3     0.0     0.2   13297     0.0    1330    0.00    1.33    0.00    1.19     0.0     0.0     0.0     0.0     0.0     0.0     0.0     0.0    106.    212.    204.    197.     62.     67.    254.    227.     0.1     0.2     0.2     0.2     0.1     0.1     0.3     0.2     0.0     0.0     0.0     0.0     0.0     0.0     0.0     0.0     0.1     0.1     0.1     0.1     0.1     0.1     0.4     0.3
 2020 161    32    0.00    0.00    0.00     293    0.00    30.1   0.000   0.030   0.000   0.037     0.3     0.0     0.2   13480     0.0    1356    0.00    1.36    0.00    4.59     0.0     0.0     0.0     0.0     0.0     0.0     0.0     0.0    106.    211.    207.    205.     64.     69.    261.    232.     0.1     0.2     0.2     0.2     0.1     0.1     0.3     0.2     0.0     0.0     0.0     0.0     0.0     0.0     0.0     0.0     0.3     0.4     0.3     0.3     0.2     0.2     1.5     1.3
 2020 162    33    0.00    0.00    0.00     305    0.00    31.3   0.000   0.031   0.000   0.040     0.3     0.0     0.2   12604     0.0    1215    0.00    1.21    0.00    3.28     0.0     0.0     0.0     0.0     0.0     0.0     0.0     0.0    102.    198.    184.    174.     55.     60.    231.    211.     0.1     0.2     0.2     0.2     0.1     0.1     0.2     0.2     0.0     0.0     0.0     0.0     0.0     0.0     0.0     0.0     0.2     0.3     0.2     0.2     0.2     0.2     1.0     1.0
 2020 163    34    0.00    0.00    0.00     317    0.00    32.4   0.000   0.032   0.000   0.043     0.3     0.0     0.2   11744     0.0    1103    0.00    1.10    0.00    2.45     0.0     0.0     0.0     0.0     0.0     0.0     0.0     0.0     87.    171.    166.    161.     51.     55.    214.    198.     0.1     0.2     0.2     0.2     0.1     0.1     0.2     0.2     0.0     0.0     0.0     0.0     0.0     0.0     0.0     0.0     0.1     0.2     0.2     0.2     0.1     0.1     0.8     0.7
 2020 164    35    0.00    0.00    0.00     328    0.00    33.5   0.000   0.034   0.000   0.045     0.3     0.0     0.2   11471     0.0    1108    0.00    1.11    0.00    1.99     0.0     0.0     0.0     0.0     0.0     0.0     0.0     0.0     88.    173.    168.    163.     51.     55.    214.    196.     0.1     0.2     0.2     0.2     0.1     0.1     0.2     0.2     0.0     0.0     0.0     0.0     0.0     0.0     0.0     0.0     0.1     0.2     0.2     0.1     0.1     0.1     0.6     0.6
 2020 165    36    0.00    0.00    0.00     340    0.00    34.6   0.000   0.035   0.000   0.046     0.3     0.0     0.3   11338     0.0    1126    0.00    1.13    0.00    1.64     0.0     0.0     0.0     0.0     0.0     0.0     0.0     0.0     89.    176.    171.    166.     52.     56.    217.    198.     0.1     0.2     0.2     0.2     0.1     0.1     0.2     0.2     0.0     0.0     0.0     0.0     0.0     0.0     0.0     0.0     0.1     0.1     0.1     0.1     0.1     0.1     0.5     0.5
 2020 166    37    0.00    0.00    0.00     351    0.00    35.8   0.000   0.036   0.000   0.048     0.3     0.0     0.3   11181     0.0    1117    0.00    1.12    0.00    1.33     0.0     0.0     0.0     0.0     0.0     0.0     0.0     0.0     82.    175.    171.    166.     52.     56.    217.    198.     0.1     0.2     0.2     0.2     0.1     0.1     0.2     0.2     0.0     0.0     0.0     0.0     0.0     0.0     0.0     0.0     0.1     0.1     0.1     0.1     0.1     0.1     0.4     0.4
 2020 167    38    0.01    0.00    0.00     378    0.00    37.0   0.000   0.037   0.000   0.049     0.4     0.0     0.3   26808     0.0    1280    0.00    1.28    0.00    1.23     0.0     0.0     0.0     0.0     0.0     0.0     0.0     0.0     89.    207.    201.    194.     61.     65.    246.    219.     0.1     0.2     0.2     0.2     0.1     0.1     0.2     0.2     0.0     0.0     0.0     0.0     0.0     0.0     0.0     0.0     0.1     0.1     0.1     0.1     0.1     0.1     0.4     0.3
 2020 168    39    0.01    0.00    0.00     404    0.00    38.1   0.000   0.038   0.000   0.050     0.4     0.0     0.3   26564     0.0    1088    0.00    1.09    0.00    1.07     0.0     0.0     0.0     0.0     0.0     0.0     0.0     0.0     22.     21.    213.    206.     64.     69.    262.    231.     0.0     0.0     0.2     0.2     0.1     0.1     0.3     0.2     0.0     0.0     0.0     0.0     0.0     0.0     0.0     0.0     0.0     0.0     0.1     0.1     0.1     0.1     0.4     0.3
 2020 169    40    0.01    0.00    0.00     429    0.00    39.2   0.000   0.039   0.000   0.051     0.4     0.0     0.3   25089     0.0    1095    0.00    1.10    0.00    1.07     0.0     0.0     0.0     0.0     0.0     0.0     0.0     0.0     25.     53.    204.    198.     62.     67.    257.    229.     0.0     0.1     0.2     0.2     0.1     0.1     0.3     0.2     0.0     0.0     0.0     0.0     0.0     0.0     0.0     0.0     0.0     0.0     0.1     0.1     0.1     0.1     0.4     0.3
 2020 170    41    0.01    0.00    0.00     453    0.00    40.4   0.000   0.040   0.000   0.052     0.4     0.0     0.4   23748     0.0    1152    0.00    1.15    0.00    1.10     0.0     0.0     0.0     0.0     0.0     0.0     0.0     0.0     31.    106.    204.    198.     62.     67.    255.    229.     0.0     0.1     0.2     0.2     0.1     0.1     0.3     0.2     0.0     0.0     0.0     0.0     0.0     0.0     0.0     0.0     0.0     0.1     0.1     0.1     0.1     0.1     0.4     0.3
 2020 171    42    0.01    0.00    0.01     475    0.00    41.5   0.000   0.041   0.000   0.053     0.4     0.0     0.4   21693     0.0    1121    0.00    1.12    0.00    1.05     0.0     0.0     0.0     0.0     0.0     0.0     0.0     0.0     33.    140.    188.    183.     58.     62.    240.    218.     0.0     0.1     0.2     0.2     0.1     0.1     0.2     0.2     0.0     0.0     0.0     0.0     0.0     0.0     0.0     0.0     0.0     0.1     0.1     0.1     0.1     0.1     0.4     0.3
 2020 172    43    0.01    0.00    0.01     494    0.00    42.5   0.000   0.043   0.000   0.054     0.4     0.0     0.4   19359     0.0    1039    0.00    1.04    0.00    0.97     0.0     0.0     0.0     0.0     0.0     0.0     0.0     0.0     29.    147.    169.    165.     52.     56.    219.    202.     0.0     0.1     0.2     0.2     0.1     0.1     0.2     0.2     0.0     0.0     0.0     0.0     0.0     0.0     0.0     0.0     0.0     0.1     0.1     0.1     0.0     0.1     0.3     0.3
 2020 173    44    0.01    0.00    0.01     512    0.00    43.6   0.000   0.044   0.000   0.055     0.5     0.0     0.4   17933     0.0    1049    0.00    1.05    0.00    0.97     0.0     0.0     0.0     0.0     0.0     0.0     0.0     0.0     29.    164.    168.    164.     52.     56.    216.    199.     0.0     0.2     0.2     0.2     0.1     0.1     0.2     0.2     0.0     0.0     0.0     0.0     0.0     0.0     0.0     0.0     0.0     0.1     0.1     0.1     0.0     0.1     0.3     0.3
 2020 174    45    0.01    0.00    0.01     529    0.00    44.6   0.000   0.045   0.000   0.056     0.5     0.0     0.4   16791     0.0    1067    0.00    1.07    0.00    0.98     0.0     0.0     0.0     0.0     0.0     0.0     0.0     0.0     29.    178.    170.    165.     52.     56.    217.    200.     0.0     0.2     0.2     0.2     0.1     0.1     0.2     0.2     0.0     0.0     0.0     0.0     0.0     0.0     0.0     0.0     0.0     0.1     0.1     0.1     0.0     0.1     0.3     0.3
 2020 175    46    0.01    0.00    0.01     545    0.00    45.7   0.000   0.046   0.000   0.057     0.5     0.0     0.4   15604     0.0    1028    0.00    1.03    0.00    0.95     0.0     0.0     0.0     0.0     0.0     0.0     0.0     0.0     24.    178.    161.    157.     50.     54.    209.    194.     0.0     0.2     0.2     0.2     0.0     0.1     0.2     0.2     0.0     0.0     0.0     0.0     0.0     0.0     0.0     0.0     0.0     0.1     0.1     0.1     0.0     0.1     0.3     0.3
 2020 176    47    0.01    0.00    0.01     559    0.00    46.7   0.000   0.047   0.000   0.058     0.5     0.0     0.4   14903     0.0    1040    0.00    1.04    0.00    0.96     0.0     0.0     0.0     0.0     0.0     0.0     0.0     0.0     23.    186.    163.    159.     50.     54.    210.    194.     0.0     0.2     0.2     0.2     0.1     0.1     0.2     0.2     0.0     0.0     0.0     0.0     0.0     0.0     0.0     0.0     0.0     0.1     0.1     0.1     0.0     0.1     0.3     0.3
 2020 177    48    0.01    0.00    0.01     575    0.00    47.9   0.000   0.048   0.000   0.059     0.5     0.0     0.4   15604     0.0    1194    0.00    1.19    0.00    1.08     0.0     0.0     0.0     0.0     0.0     0.0     0.0     0.0     26.    225.    190.    184.     58.     62.    237.    213.     0.0     0.2     0.2     0.2     0.1     0.1     0.2     0.2     0.0     0.0     0.0     0.0     0.0     0.0     0.0     0.0     0.0     0.1     0.1     0.1     0.1     0.1     0.4     0.3
 2020 178    49    0.01    0.00    0.01     591    0.00    49.1   0.000   0.049   0.000   0.060     0.5     0.0     0.5   15766     0.0    1231    0.00    1.23    0.00    1.12     0.0     0.0     0.0     0.0     0.0     0.0     0.0     0.0     25.    236.    195.    189.     59.     64.    244.    219.     0.0     0.2     0.2     0.2     0.1     0.1     0.2     0.2     0.0     0.0     0.0     0.0     0.0     0.0     0.0     0.0     0.0     0.1     0.1     0.1     0.1     0.1     0.4     0.3
 2020 179    50    0.01    0.00    0.01     607    0.00    50.4   0.000   0.050   0.000   0.061     0.5     0.0     0.5   15948     0.0    1253    0.00    1.25    0.00    1.14     0.0     0.0     0.0     0.0     0.0     0.0     0.0     0.0     24.    243.    197.    192.     60.     65.    249.    223.     0.0     0.2     0.2     0.2     0.1     0.1     0.2     0.2     0.0     0.0     0.0     0.0     0.0     0.0     0.0     0.0     0.0     0.1     0.1     0.1     0.1     0.1     0.4     0.3
 2020 180    51    0.01    0.00    0.01     623    0.00    51.7   0.000   0.052   0.000   0.062     0.5     0.0     0.5   16254     0.0    1304    0.00    1.30    0.00    1.18     0.0     0.0     0.0     0.0     0.0     0.0     0.0     0.0     25.    258.    205.    199.     63.     67.    257.    230.     0.0     0.3     0.2     0.2     0.1     0.1     0.3     0.2     0.0     0.0     0.0     0.0     0.0     0.0     0.0     0.0     0.0     0.1     0.1     0.1     0.1     0.1     0.4     0.3
 2020 181    52    0.01    0.00    0.01     640    0.00    53.0   0.000   0.053   0.000   0.064     0.5     0.0     0.5   16919     0.0    1350    0.00    1.35    0.00    1.23     0.0     0.0     0.0     0.0     0.0     0.0     0.0     0.0     26.    257.    214.    209.     66.     71.    269.    239.     0.0     0.3     0.2     0.2     0.1     0.1     0.3     0.2     0.0     0.0     0.0     0.0     0.0     0.0     0.0     0.0     0.0     0.1     0.1     0.1     0.1     0.1     0.4     0.4
 2020 182    53    0.01    0.00    0.01     657    0.00    54.4   0.000   0.054   0.000   0.065     0.6     0.0     0.5   16946     0.0    1358    0.00    1.36    0.00    1.24     0.0     0.0     0.0     0.0     0.0     0.0     0.0     0.0     26.    262.    207.    211.     66.     71.    272.    242.     0.0     0.3     0.2     0.2     0.1     0.1     0.3     0.2     0.0     0.0     0.0     0.0     0.0     0.0     0.0     0.0     0.0     0.1     0.1     0.1     0.1     0.1     0.4     0.4
 2020 183    54    0.01    0.00    0.01     674    0.00    55.8   0.000   0.056   0.000   0.066     0.6     0.0     0.5   16675     0.0    1351    0.00    1.35    0.00    1.23     0.0     0.0     0.0     0.0     0.0     0.0     0.0     0.0     25.    262.    212.    207.     65.     70.    269.    240.     0.0     0.3     0.2     0.2     0.1     0.1     0.3     0.2     0.0     0.0     0.0     0.0     0.0     0.0     0.0     0.0     0.0     0.1     0.1     0.1     0.1     0.1     0.4     0.4
 2020 184    55    0.01    0.00    0.01     690    0.00    57.1   0.000   0.057   0.000   0.067     0.6     0.0     0.5   16291     0.0    1315    0.00    1.31    0.00    1.19     0.0     0.0     0.0     0.0     0.0     0.0     0.0     0.0     24.    261.    213.    201.     63.     67.    253.    234.     0.0     0.3     0.2     0.2     0.1     0.1     0.3     0.2     0.0     0.0     0.0     0.0     0.0     0.0     0.0     0.0     0.0     0.1     0.1     0.1     0.1     0.1     0.4     0.3
 2020 185    56    0.01    0.00    0.01     706    0.00    58.4   0.000   0.058   0.000   0.068     0.6     0.0     0.5   16089     0.0    1315    0.00    1.31    0.00    1.19     0.0     0.0     0.0     0.0     0.0     0.0     0.0     0.0     24.    259.    210.    203.     63.     68.    253.    234.     0.0     0.3     0.2     0.2     0.1     0.1     0.3     0.2     0.0     0.0     0.0     0.0     0.0     0.0     0.0     0.0     0.0     0.1     0.1     0.1     0.1     0.1     0.4     0.3
 2020 186    57    0.01    0.00    0.01     722    0.00    59.7   0.000   0.060   0.000   0.070     0.6     0.0     0.6   15973     0.0    1295    0.00    1.30    0.00    1.17     0.0     0.0     0.0     0.0     0.0     0.0     0.0     0.0     24.    258.    209.    197.     62.     67.    248.    231.     0.0     0.3     0.2     0.2     0.1     0.1     0.2     0.2     0.0     0.0     0.0     0.0     0.0     0.0     0.0     0.0     0.0     0.1     0.1     0.1     0.1     0.1     0.4     0.3
 2020 187    58    0.02    0.00    0.01     737    0.00    60.9   0.000   0.061   0.000   0.071     0.6     0.0     0.6   15313     0.0    1228    0.00    1.23    0.00    1.11     0.0     0.0     0.0     0.0     0.0     0.0     0.0     0.0     22.    248.    192.    186.     58.     62.    237.    222.     0.0     0.2     0.2     0.2     0.1     0.1     0.2     0.2     0.0     0.0     0.0     0.0     0.0     0.0     0.0     0.0     0.0     0.1     0.1     0.1     0.1     0.1     0.4     0.3
 2020 188    59    0.02    0.00    0.01     752    0.00    62.1   0.000   0.062   0.000   0.072     0.6     0.0     0.6   14518     0.0    1146    0.00    1.15    0.00    1.05     0.0     0.0     0.0     0.0     0.0     0.0     0.0     0.0     21.    219.    180.    175.     55.     59.    225.    213.     0.0     0.2     0.2     0.2     0.1     0.1     0.2     0.2     0.0     0.0     0.0     0.0     0.0     0.0     0.0     0.0     0.0     0.1     0.1     0.1     0.1     0.1     0.3     0.3
 2020 189    60    0.02    0.00    0.01     766    0.00    63.2   0.000   0.063   0.000   0.073     0.6     0.0     0.6   14357     0.0    1169    0.00    1.17    0.00    1.07     0.0     0.0     0.0     0.0     0.0     0.0     0.0     0.0     21.    224.    185.    180.     56.     60.    228.    215.     0.0     0.2     0.2     0.2     0.1     0.1     0.2     0.2     0.0     0.0     0.0     0.0     0.0     0.0     0.0     0.0     0.0     0.1     0.1     0.1     0.1     0.1     0.3     0.3
 2020 190    61    0.02    0.00    0.01     780    0.00    64.4   0.000   0.064   0.000   0.074     0.7     0.0     0.6   14124     0.0    1155    0.00    1.16    0.00    1.06     0.0     0.0     0.0     0.0     0.0     0.0     0.0     0.0     21.    218.    182.    178.     55.     59.    227.    214.     0.0     0.2     0.2     0.2     0.1     0.1     0.2     0.2     0.0     0.0     0.0     0.0     0.0     0.0     0.0     0.0     0.0     0.1     0.1     0.1     0.1     0.1     0.3     0.3
 2020 191    62    0.02    0.00    0.02     795    0.00    65.6   0.000   0.066   0.000   0.075     0.7     0.0     0.6   14383     0.0    1210    0.00    1.21    0.00    1.10     0.0     0.0     0.0     0.0     0.0     0.0     0.0     0.0     23.    229.    193.    187.     58.     62.    237.    221.     0.0     0.2     0.2     0.2     0.1     0.1     0.2     0.2     0.0     0.0     0.0     0.0     0.0     0.0     0.0     0.0     0.0     0.1     0.1     0.1     0.1     0.1     0.4     0.3
 2020 192    63    0.02    0.00    0.02     809    0.00    66.8   0.000   0.067   0.000   0.076     0.7     0.0     0.6   14318     0.0    1193    0.00    1.19    0.00    1.09     0.0     0.0     0.0     0.0     0.0     0.0     0.0     0.0     23.    222.    189.    184.     57.     62.    235.    221.     0.0     0.2     0.2     0.2     0.1     0.1     0.2     0.2     0.0     0.0     0.0     0.0     0.0     0.0     0.0     0.0     0.0     0.1     0.1     0.1     0.1     0.1     0.3     0.3
 2020 193    64    0.02    0.00    0.02     823    0.00    68.0   0.000   0.068   0.000   0.077     0.7     0.0     0.6   14450     0.0    1215    0.00    1.21    0.00    1.11     0.0     0.0     0.0     0.0     0.0     0.0     0.0     0.0     23.    225.    193.    188.     59.     63.    240.    224.     0.0     0.2     0.2     0.2     0.1     0.1     0.2     0.2     0.0     0.0     0.0     0.0     0.0     0.0     0.0     0.0     0.0     0.1     0.1     0.1     0.1     0.1     0.4     0.3
 2020 194    65    0.02    0.00    0.02     838    0.00    69.2   0.000   0.069   0.000   0.078     0.7     0.0     0.7   14704     0.0    1236    0.00    1.24    0.00    1.13     0.0     0.0     0.0     0.0     0.0     0.0     0.0     0.0     24.    227.    197.    192.     60.     64.    244.    228.     0.0     0.2     0.2     0.2     0.1     0.1     0.2     0.2     0.0     0.0     0.0     0.0     0.0     0.0     0.0     0.0     0.0     0.1     0.1     0.1     0.1     0.1     0.4     0.3
 2020 195    66    0.02    0.00    0.02     853    0.00    70.4   0.000   0.070   0.000   0.079     0.7     0.0     0.7   14647     0.0    1213    0.00    1.21    0.00    1.12     0.0     0.0     0.0     0.0     0.0     0.0     0.0     0.0     24.    219.    193.    189.     59.     63.    240.    226.     0.0     0.2     0.2     0.2     0.1     0.1     0.2     0.2     0.0     0.0     0.0     0.0     0.0     0.0     0.0     0.0     0.0     0.1     0.1     0.1     0.1     0.1     0.4     0.3
 2020 196    67    0.02    0.00    0.02     867    0.00    71.6   0.000   0.072   0.000   0.083     0.7     0.0     0.7   14157     0.0    1142    0.00    1.14    0.00    3.96     0.0     0.0     0.0     0.0     0.0     0.0     0.0     0.0     22.    202.    181.    177.     55.     59.    228.    218.     0.0     0.2     0.2     0.2     0.1     0.1     0.2     0.2     0.0     0.0     0.0     0.0     0.0     0.0     0.0     0.0     0.1     0.4     0.3     0.3     0.2     0.2     1.3     1.2
 2020 197    68    0.02    0.00    0.02     881    0.00    72.7   0.000   0.073   0.000   0.087     0.7     0.0     0.7   13950     0.0    1154    0.00    1.15    0.00    3.24     0.0     0.0     0.0     0.0     0.0     0.0     0.0     0.0     41.    200.    181.    177.     55.     59.    226.    216.     0.0     0.2     0.2     0.2     0.1     0.1     0.2     0.2     0.0     0.0     0.0     0.0     0.0     0.0     0.0     0.0     0.1     0.3     0.2     0.2     0.2     0.2     1.0     1.0
 2020 198    69    0.02    0.00    0.02     895    0.00    73.9   0.000   0.074   0.000   0.089     0.7     0.0     0.7   13663     0.0    1115    0.00    1.12    0.00    2.55     0.0     0.0     0.0     0.0     0.0     0.0     0.0     0.0     28.    192.    176.    172.     54.     58.    222.    213.     0.0     0.2     0.2     0.2     0.1     0.1     0.2     0.2     0.0     0.0     0.0     0.0     0.0     0.0     0.0     0.0     0.1     0.3     0.2     0.2     0.1     0.1     0.8     0.8
 2020 199    70    0.02    0.00    0.02     908    0.00    74.9   0.000   0.075   0.000   0.091     0.8     0.0     0.7   13344     0.0    1081    0.00    1.08    0.00    2.02     0.0     0.0     0.0     0.0     0.0     0.0     0.0     0.0     23.    185.    171.    168.     52.     56.    217.    209.     0.0     0.2     0.2     0.2     0.1     0.1     0.2     0.2     0.0     0.0     0.0     0.0     0.0     0.0     0.0     0.0     0.0     0.2     0.2     0.2     0.1     0.1     0.6     0.6
 2020 200    71    0.02    0.00    0.02     922    0.00    76.1   0.000   0.076   0.000   0.093     0.7     0.0     0.7   14632     0.0    1122    0.00    1.12    0.00    1.69     0.0     0.0     0.0     0.0     0.0     0.0     0.0     0.0     39.    188.    176.    173.     54.     58.    221.    213.     0.0     0.2     0.2     0.2     0.1     0.1     0.2     0.2     0.0     0.0     0.0     0.0     0.0     0.0     0.0     0.0     0.0     0.2     0.1     0.1     0.1     0.1     0.5     0.5
 2020 201    72    0.02    0.00    0.02     941    0.00    77.2   0.000   0.077   0.000   0.094     0.5     0.0     0.5   18723     0.0    1145    0.00    1.15    0.00    1.39     0.0     0.0     0.0     0.0     0.0     0.0     0.0     0.0     35.    192.    182.    178.     55.     59.    227.    217.     0.0     0.2     0.2     0.2     0.1     0.1     0.2     0.2     0.0     0.0     0.0     0.0     0.0     0.0     0.0     0.0     0.0     0.1     0.1     0.1     0.1     0.1     0.4     0.4
 2020 202    73    0.03    0.00    0.02     959    0.00    78.3   0.000   0.078   0.000   0.095     0.6     0.0     0.6   17750     0.0    1138    0.00    1.14    0.00    1.12     0.0     0.0     0.0     0.0     0.0     0.0     0.0     0.0     56.    183.    176.    173.     54.     58.    223.    215.     0.1     0.2     0.2     0.2     0.1     0.1     0.2     0.2     0.0     0.0     0.0     0.0     0.0     0.0     0.0     0.0     0.0     0.1     0.1     0.1     0.1     0.1     0.4     0.3
 2020 203    74    0.03    0.00    0.02     976    0.00    79.5   0.000   0.080   0.000   0.097     0.6     0.0     0.6   17098     0.0    1189    0.00    1.19    0.00    1.08     0.0     0.0     0.0     0.0     0.0     0.0     0.0     0.0     75.    189.    183.    179.     56.     60.    229.    220.     0.1     0.2     0.2     0.2     0.1     0.1     0.2     0.2     0.0     0.0     0.0     0.0     0.0     0.0     0.0     0.0     0.0     0.1     0.1     0.1     0.1     0.1     0.3     0.3
 2020 204    75    0.03    0.00    0.02     992    0.00    80.7   0.000   0.081   0.000   0.098     0.7     0.0     0.7   16336     0.0    1166    0.00    1.17    0.00    1.06     0.0     0.0     0.0     0.0     0.0     0.0     0.0     0.0     81.    181.    177.    174.     54.     59.    224.    217.     0.1     0.2     0.2     0.2     0.1     0.1     0.2     0.2     0.0     0.0     0.0     0.0     0.0     0.0     0.0     0.0     0.0     0.1     0.1     0.1     0.1     0.1     0.3     0.3
 2020 205    76    0.03    0.00    0.02    1008    0.00    81.8   0.000   0.082   0.000   0.099     0.7     0.0     0.7   15695     0.0    1147    0.00    1.15    0.00    1.05     0.0     0.0     0.0     0.0     0.0     0.0     0.0     0.0     79.    176.    174.    171.     54.     58.    221.    214.     0.1     0.2     0.2     0.2     0.1     0.1     0.2     0.2     0.0     0.0     0.0     0.0     0.0     0.0     0.0     0.0     0.0     0.1     0.1     0.1     0.0     0.1     0.3     0.3
 2020 206    77    0.03    0.00    0.03    1023    0.00    83.0   0.000   0.083   0.000   0.100     0.8     0.0     0.8   15147     0.0    1126    0.00    1.13    0.00    1.03     0.0     0.0     0.0     0.0     0.0     0.0     0.0     0.0     73.    171.    172.    169.     53.     57.    219.    212.     0.1     0.2     0.2     0.2     0.1     0.1     0.2     0.2     0.0     0.0     0.0     0.0     0.0     0.0     0.0     0.0     0.0     0.1     0.1     0.1     0.0     0.1     0.3     0.3
 2020 207    78    0.03    0.00    0.03    1039    0.00    84.2   0.000   0.084   0.000   0.101     0.8     0.0     0.8   15329     0.0    1191    0.00    1.19    0.00    1.09     0.0     0.0     0.0     0.0     0.0     0.0     0.0     0.0     73.    182.    185.    181.     57.     61.    231.    221.     0.1     0.2     0.2     0.2     0.1     0.1     0.2     0.2     0.0     0.0     0.0     0.0     0.0     0.0     0.0     0.0     0.0     0.1     0.1     0.1     0.1     0.1     0.3     0.3
 2020 208    79    0.03    0.00    0.03    1054    0.00    85.4   0.000   0.085   0.000   0.102     0.8     0.0     0.9   15476     0.0    1224    0.00    1.22    0.00    1.12     0.0     0.0     0.0     0.0     0.0     0.0     0.0     0.0     69.    187.    192.    188.     59.     63.    238.    228.     0.1     0.2     0.2     0.2     0.1     0.1     0.2     0.2     0.0     0.0     0.0     0.0     0.0     0.0     0.0     0.0     0.0     0.1     0.1     0.1     0.1     0.1     0.4     0.3
 2020 209    80    0.03    0.00    0.03    1073    0.00    86.1   0.000   0.086   0.000   0.103     0.2     0.0     0.2   18965     0.0     751    0.00    0.75    0.00    0.84     0.0     0.0     0.0     0.0     0.0     0.0     0.0     0.0     17.     54.     47.     49.     39.     65.    246.    234.     0.0     0.1     0.0     0.0     0.0     0.1     0.2     0.2     0.0     0.0     0.0     0.0     0.0     0.0     0.0     0.0     0.0     0.0     0.0     0.0     0.0     0.1     0.4     0.3
 2020 210    81    0.03    0.00    0.03    1092    0.00    87.0   0.000   0.087   0.000   0.104     0.3     0.0     0.3   18531     0.0     847    0.00    0.85    0.00    0.82     0.0     0.0     0.0     0.0     0.0     0.0     0.0     0.0     38.    114.     82.     77.     43.     41.    228.    224.     0.0     0.1     0.1     0.1     0.0     0.0     0.2     0.2     0.0     0.0     0.0     0.0     0.0     0.0     0.0     0.0     0.0     0.0     0.0     0.0     0.0     0.0     0.3     0.3
 2020 211    82    0.03    0.00    0.03    1110    0.00    88.0   0.000   0.088   0.000   0.104     0.6     0.0     0.6   18321     0.0     970    0.00    0.97    0.00    0.89     0.0     0.0     0.0     0.0     0.0     0.0     0.0     0.0     68.    159.    113.    108.     50.     47.    213.    211.     0.1     0.2     0.1     0.1     0.0     0.0     0.2     0.2     0.0     0.0     0.0     0.0     0.0     0.0     0.0     0.0     0.0     0.1     0.0     0.0     0.0     0.0     0.3     0.3
 2020 212    83    0.03    0.00    0.03    1127    0.00    88.9   0.000   0.089   0.000   0.105     0.3     0.0     0.3   17242     0.0     946    0.00    0.95    0.00    0.83     0.0     0.0     0.0     0.0     0.0     0.0     0.0     0.0     57.    140.    113.    114.     48.     48.    216.    209.     0.1     0.1     0.1     0.1     0.0     0.0     0.2     0.2     0.0     0.0     0.0     0.0     0.0     0.0     0.0     0.0     0.0     0.0     0.0     0.0     0.0     0.0     0.3     0.3
 2020 213    84    0.03    0.00    0.03    1144    0.00    89.9   0.000   0.090   0.003   0.106     0.6     0.0     0.6   16534     3.1     952    0.03    0.95    3.08    0.84     0.4     0.8     0.8     0.8     0.2     0.0     0.0     0.0     77.    156.    116.    113.     45.     46.    202.    197.     0.1     0.2     0.1     0.1     0.0     0.0     0.2     0.2     0.4     0.8     0.8     0.8     0.2     0.0     0.0     0.0     0.0     0.1     0.0     0.0     0.0     0.0     0.3     0.3
 2020 214    85    0.03    0.00    0.03    1160    0.00    90.8   0.000   0.091   0.004   0.107     0.7     0.0     0.7   15949     0.9     963    0.01    0.96    0.93    0.87     0.1     0.2     0.2     0.2     0.1     0.1     0.0     0.0     79.    158.    125.    122.     46.     48.    195.    191.     0.1     0.2     0.1     0.1     0.0     0.0     0.2     0.2     0.1     0.2     0.2     0.2     0.1     0.1     0.0     0.0     0.0     0.1     0.1     0.1     0.0     0.0     0.3     0.3
 2020 215    86    0.03    0.00    0.03    1176    0.00    91.9   0.000   0.092   0.004   0.108     0.7     0.0     0.8   16436     0.4    1042    0.00    1.04    0.42    0.95     0.1     0.0     0.1     0.1     0.0     0.0     0.0     0.0     85.    172.    139.    136.     50.     52.    208.    201.     0.1     0.2     0.1     0.1     0.1     0.1     0.2     0.2     0.1     0.0     0.1     0.1     0.0     0.0     0.0     0.0     0.0     0.1     0.1     0.1     0.0     0.0     0.3     0.3
 2020 216    87    0.03    0.00    0.03    1193    0.00    93.2   0.000   0.093   0.005   0.109     0.8     0.1     0.8   16600     0.2    1339    0.00    1.34    0.17    1.12     0.0     0.0     0.0     0.1     0.0     0.0     0.0     0.0     88.    412.    148.    145.     74.     54.    214.    205.     0.1     0.4     0.1     0.1     0.1     0.1     0.2     0.2     0.0     0.0     0.0     0.1     0.0     0.0     0.0     0.0     0.0     0.2     0.1     0.1     0.1     0.0     0.3     0.3
 2020 217    88    0.03    0.00    0.03    1208    0.01    94.1   0.000   0.094   0.007   0.110     0.3     0.1     0.3   15113     2.7     868    0.02    0.87    2.63    0.79     1.1     0.0     0.9     0.6     0.0     0.1     0.0     0.0     55.     80.    121.    127.     37.     50.    201.    196.     0.1     0.1     0.1     0.1     0.0     0.1     0.2     0.2     1.1     0.0     0.9     0.6     0.0     0.1     0.0     0.0     0.0     0.0     0.0     0.0     0.0     0.0     0.3     0.3
 2020 218    89    0.03    0.00    0.03    1223    0.01    95.0   0.000   0.095   0.010   0.111     0.4     0.1     0.4   15340     3.0     928    0.02    0.93    2.98    0.82     1.0     0.0     1.0     0.8     0.0     0.1     0.0     0.0     61.    113.    128.    129.     40.     50.    207.    200.     0.1     0.1     0.1     0.1     0.0     0.1     0.2     0.2     1.0     0.0     1.0     0.8     0.0     0.1     0.0     0.0     0.0     0.0     0.0     0.0     0.0     0.0     0.3     0.3
 2020 219    90    0.04    0.00    0.03    1239    0.01    96.0   0.000   0.096   0.011   0.112     0.8     0.2     0.8   15821     0.6    1041    0.00    1.04    0.60    0.93     0.1     0.0     0.2     0.2     0.0     0.0     0.0     0.0     85.    154.    149.    146.     46.     53.    208.    201.     0.1     0.2     0.2     0.1     0.0     0.1     0.2     0.2     0.1     0.0     0.2     0.2     0.0     0.0     0.0     0.0     0.0     0.1     0.1     0.1     0.0     0.0     0.3     0.3
 2020 220    91    0.04    0.00    0.03    1254    0.02    96.9   0.000   0.097   0.015   0.112     0.4     0.1     0.4   14751     4.7     876    0.04    0.88    4.65    0.77     1.0     0.0     2.1     1.3     0.0     0.2     0.0     0.0     56.    108.    104.    118.     42.     49.    202.    197.     0.1     0.1     0.1     0.1     0.0     0.1     0.2     0.2     1.0     0.0     2.1     1.3     0.0     0.2     0.0     0.0     0.0     0.0     0.0     0.0     0.0     0.0     0.3     0.3
 2020 221    92    0.04    0.00    0.03    1270    0.02    98.0   0.000   0.098   0.017   0.113     0.8     0.3     0.8   15878     2.0    1070    0.02    1.07    1.96    0.93     0.1     0.6     0.7     0.4     0.1     0.0     0.0     0.0     86.    158.    152.    152.     49.     55.    213.    205.     0.1     0.2     0.2     0.2     0.1     0.1     0.2     0.2     0.1     0.6     0.7     0.4     0.1     0.0     0.0     0.0     0.0     0.1     0.1     0.1     0.0     0.0     0.3     0.3
 2020 222    93    0.04    0.00    0.03    1287    0.02    99.2   0.000   0.099   0.018   0.114     0.8     0.3     0.9   17007     0.4    1221    0.00    1.22    0.41    1.07     0.1     0.1     0.1     0.0     0.0     0.0     0.0     0.0     97.    190.    186.    180.     56.     61.    231.    219.     0.1     0.2     0.2     0.2     0.1     0.1     0.2     0.2     0.1     0.1     0.1     0.0     0.0     0.0     0.0     0.0     0.0     0.1     0.1     0.1     0.1     0.1     0.3     0.3
 2020 223    94    0.04    0.00    0.04    1304    0.02   101.4   0.000   0.101   0.018   0.116     0.9     0.3     0.9   17835     0.0    2241    0.00    2.24    0.01    1.61     0.0     0.0     0.0     0.0     0.0     0.0     0.0     0.0    254.    211.    575.    547.     87.     94.    244.    229.     0.3     0.2     0.6     0.5     0.1     0.1     0.2     0.2     0.0     0.0     0.0     0.0     0.0     0.0     0.0     0.0     0.1     0.1     0.3     0.2     0.1     0.1     0.4     0.3
 2020 224    95    0.04    0.00    0.04    1323    0.02   103.3   0.000   0.103   0.018   0.117     0.9     0.3     0.9   18150     0.0    1881    0.00    1.88    0.00    1.45     0.0     0.0     0.0     0.0     0.0     0.0     0.0     0.0    162.    512.    293.    291.     68.     75.    248.    232.     0.2     0.5     0.3     0.3     0.1     0.1     0.2     0.2     0.0     0.0     0.0     0.0     0.0     0.0     0.0     0.0     0.1     0.3     0.1     0.1     0.1     0.1     0.4     0.3
 2020 225    96    0.04    0.00    0.04    1341    0.02   104.8   0.000   0.105   0.018   0.119     0.9     0.3     1.0   18263     0.0    1496    0.00    1.50    0.00    1.27     0.0     0.0     0.0     0.0     0.0     0.0     0.0     0.0    142.    300.    217.    217.     63.     69.    253.    236.     0.1     0.3     0.2     0.2     0.1     0.1     0.3     0.2     0.0     0.0     0.0     0.0     0.0     0.0     0.0     0.0     0.1     0.2     0.1     0.1     0.1     0.1     0.4     0.4
 2020 226    97    0.04    0.00    0.04    1359    0.02   106.2   0.000   0.106   0.018   0.120     1.0     0.3     1.0   17829     0.0    1347    0.00    1.35    0.00    1.18     0.0     0.0     0.0     0.0     0.0     0.0     0.0     0.0    127.    240.    190.    188.     59.     65.    246.    231.     0.1     0.2     0.2     0.2     0.1     0.1     0.2     0.2     0.0     0.0     0.0     0.0     0.0     0.0     0.0     0.0     0.1     0.1     0.1     0.1     0.1     0.1     0.4     0.3
 2020 227    98    0.04    0.00    0.04    1376    0.02   107.5   0.000   0.107   0.018   0.121     1.0     0.3     1.0   17271     0.0    1298    0.00    1.30    0.00    1.15     0.0     0.0     0.0     0.0     0.0     0.0     0.0     0.0    119.    225.    183.    180.     58.     63.    242.    227.     0.1     0.2     0.2     0.2     0.1     0.1     0.2     0.2     0.0     0.0     0.0     0.0     0.0     0.0     0.0     0.0     0.1     0.1     0.1     0.1     0.1     0.1     0.4     0.3
 2020 228    99    0.04    0.00    0.04    1393    0.02   108.7   0.000   0.109   0.018   0.122     1.1     0.3     1.1   16647     0.0    1250    0.00    1.25    0.00    1.12     0.0     0.0     0.0     0.0     0.0     0.0     0.0     0.0    105.    216.    177.    175.     57.     62.    236.    223.     0.1     0.2     0.2     0.2     0.1     0.1     0.2     0.2     0.0     0.0     0.0     0.0     0.0     0.0     0.0     0.0     0.1     0.1     0.1     0.1     0.1     0.1     0.3     0.3
 2020 229   100    0.04    0.00    0.04    1409    0.02   109.9   0.000   0.110   0.018   0.123     1.1     0.3     1.1   16219     0.0    1230    0.00    1.23    0.00    1.11     0.0     0.0     0.0     0.0     0.0     0.0     0.0     0.0     94.    213.    176.    174.     56.     62.    235.    221.     0.1     0.2     0.2     0.2     0.1     0.1     0.2     0.2     0.0     0.0     0.0     0.0     0.0     0.0     0.0     0.0     0.1     0.1     0.1     0.1     0.1     0.1     0.3     0.3
 2020 230   101    0.05    0.00    0.04    1425    0.02   111.2   0.000   0.111   0.018   0.124     1.1     0.3     1.1   16392     0.0    1224    0.00    1.22    0.00    1.10     0.0     0.0     0.0     0.0     0.0     0.0     0.0     0.0     84.    212.    177.    174.     57.     62.    236.    222.     0.1     0.2     0.2     0.2     0.1     0.1     0.2     0.2     0.0     0.0     0.0     0.0     0.0     0.0     0.0     0.0     0.0     0.1     0.1     0.1     0.1     0.1     0.3     0.3
 2020 231   102    0.05    0.00    0.04    1441    0.02   112.4   0.000   0.112   0.018   0.125     1.1     0.3     1.1   16341     0.0    1263    0.00    1.26    0.00    1.13     0.0     0.0     0.0     0.0     0.0     0.0     0.0     0.0     95.    217.    182.    179.     58.     64.    242.    226.     0.1     0.2     0.2     0.2     0.1     0.1     0.2     0.2     0.0     0.0     0.0     0.0     0.0     0.0     0.0     0.0     0.1     0.1     0.1     0.1     0.1     0.1     0.4     0.3
 2020 232   103    0.05    0.00    0.05    1458    0.02   113.7   0.000   0.114   0.018   0.127     1.2     0.3     1.2   16146     0.0    1253    0.00    1.25    0.00    1.13     0.0     0.0     0.0     0.0     0.0     0.0     0.0     0.0     88.    215.    181.    179.     58.     64.    242.    226.     0.1     0.2     0.2     0.2     0.1     0.1     0.2     0.2     0.0     0.0     0.0     0.0     0.0     0.0     0.0     0.0     0.1     0.1     0.1     0.1     0.1     0.1     0.4     0.3
 2020 233   104    0.05    0.00    0.05    1473    0.02   114.9   0.000   0.115   0.018   0.128     1.2     0.3     1.2   15855     0.0    1229    0.00    1.23    0.00    1.12     0.0     0.0     0.0     0.0     0.0     0.0     0.0     0.0     78.    211.    179.    177.     58.     63.    240.    224.     0.1     0.2     0.2     0.2     0.1     0.1     0.2     0.2     0.0     0.0     0.0     0.0     0.0     0.0     0.0     0.0     0.1     0.1     0.1     0.1     0.1     0.1     0.4     0.3
 2020 234   105    0.05    0.00    0.05    1489    0.02   116.1   0.000   0.116   0.018   0.129     1.3     0.3     1.3   15722     0.0    1228    0.00    1.23    0.00    1.12     0.0     0.0     0.0     0.0     0.0     0.0     0.0     0.0     70.    211.    180.    178.     58.     64.    241.    225.     0.1     0.2     0.2     0.2     0.1     0.1     0.2     0.2     0.0     0.0     0.0     0.0     0.0     0.0     0.0     0.0     0.0     0.1     0.1     0.1     0.1     0.1     0.4     0.3
 2020 235   106    0.05    0.00    0.05    1505    0.02   117.4   0.000   0.117   0.018   0.130     1.3     0.3     1.3   15551     0.0    1218    0.00    1.22    0.00    1.12     0.0     0.0     0.0     0.0     0.0     0.0     0.0     0.0     62.    209.    180.    178.     58.     64.    241.    225.     0.1     0.2     0.2     0.2     0.1     0.1     0.2     0.2     0.0     0.0     0.0     0.0     0.0     0.0     0.0     0.0     0.0     0.1     0.1     0.1     0.1     0.1     0.4     0.3
 2020 236   107    0.05    0.01    0.05    1520    0.02   118.6   0.000   0.119   0.018   0.131     1.3     0.3     1.3   15485     0.0    1221    0.00    1.22    0.00    1.12     0.0     0.0     0.0     0.0     0.0     0.0     0.0     0.0     55.    210.    182.    179.     59.     64.    243.    227.     0.1     0.2     0.2     0.2     0.1     0.1     0.2     0.2     0.0     0.0     0.0     0.0     0.0     0.0     0.0     0.0     0.0     0.1     0.1     0.1     0.1     0.1     0.4     0.3
 2020 237   108    0.05    0.01    0.05    1536    0.02   119.8   0.000   0.120   0.018   0.132     1.3     0.3     1.3   15493     0.0    1230    0.00    1.23    0.00    1.13     0.0     0.0     0.0     0.0     0.0     0.0     0.0     0.0     49.    213.    185.    182.     60.     65.    247.    229.     0.0     0.2     0.2     0.2     0.1     0.1     0.2     0.2     0.0     0.0     0.0     0.0     0.0     0.0     0.0     0.0     0.0     0.1     0.1     0.1     0.1     0.1     0.4     0.3
 2020 238   109    0.06    0.01    0.05    1551    0.02   121.1   0.000   0.121   0.018   0.133     1.3     0.3     1.3   15740     0.0    1266    0.00    1.27    0.00    1.16     0.0     0.0     0.0     0.0     0.0     0.0     0.0     0.0     44.    221.    192.    189.     62.     68.    255.    235.     0.0     0.2     0.2     0.2     0.1     0.1     0.3     0.2     0.0     0.0     0.0     0.0     0.0     0.0     0.0     0.0     0.0     0.1     0.1     0.1     0.1     0.1     0.4     0.4
 2020 239   110    0.06    0.01    0.05    1567    0.02   122.4   0.000   0.122   0.018   0.135     1.3     0.3     1.4   15861     0.0    1274    0.00    1.27    0.00    1.17     0.0     0.0     0.0     0.0     0.0     0.0     0.0     0.0     37.    222.    195.    192.     63.     69.    258.    238.     0.0     0.2     0.2     0.2     0.1     0.1     0.3     0.2     0.0     0.0     0.0     0.0     0.0     0.0     0.0     0.0     0.0     0.1     0.1     0.1     0.1     0.1     0.4     0.4
 2020 240   111    0.06    0.01    0.06    1583    0.02   123.7   0.000   0.124   0.018   0.136     1.3     0.3     1.4   16055     0.0    1298    0.00    1.30    0.00    1.20     0.0     0.0     0.0     0.0     0.0     0.0     0.0     0.0     33.    227.    200.    197.     65.     71.    264.    242.     0.0     0.2     0.2     0.2     0.1     0.1     0.3     0.2     0.0     0.0     0.0     0.0     0.0     0.0     0.0     0.0     0.0     0.1     0.1     0.1     0.1     0.1     0.4     0.4
 2020 241   112    0.06    0.01    0.06    1600    0.02   125.0   0.000   0.125   0.018   0.137     1.3     0.3     1.4   16147     0.0    1303    0.00    1.30    0.00    1.20     0.0     0.0     0.0     0.0     0.0     0.0     0.0     0.0     29.    227.    201.    198.     66.     72.    266.    244.     0.0     0.2     0.2     0.2     0.1     0.1     0.3     0.2     0.0     0.0     0.0     0.0     0.0     0.0     0.0     0.0     0.0     0.1     0.1     0.1     0.1     0.1     0.4     0.4
 2020 242   113    0.06    0.01    0.06    1618    0.02   125.7   0.000   0.126   0.018   0.138     0.3     0.1     0.3   17978     0.0     769    0.00    0.77    0.00    0.85     0.0     0.0     0.0     0.0     0.0     0.0     0.0     0.0      9.     65.     49.     49.     38.     46.    267.    244.     0.0     0.1     0.0     0.0     0.0     0.0     0.3     0.2     0.0     0.0     0.0     0.0     0.0     0.0     0.0     0.0     0.0     0.0     0.0     0.0     0.0     0.0     0.4     0.4
 2020 243   114    0.06    0.01    0.06    1635    0.02   126.6   0.000   0.127   0.018   0.139     0.4     0.1     0.4   17002     0.0     853    0.00    0.85    0.00    0.82     0.0     0.0     0.0     0.0     0.0     0.0     0.0     0.0     36.     99.     78.     74.     45.     50.    243.    228.     0.0     0.1     0.1     0.1     0.0     0.1     0.2     0.2     0.0     0.0     0.0     0.0     0.0     0.0     0.0     0.0     0.0     0.0     0.0     0.0     0.0     0.0     0.4     0.3
 2020 244   115    0.06    0.01    0.06    1652    0.02   127.8   0.000   0.128   0.018   0.140     0.9     0.2     1.0   17432     0.0    1194    0.00    1.19    0.00    1.05     0.0     0.0     0.0     0.0     0.0     0.0     0.0     0.0    190.    163.    124.    120.     59.     63.    247.    229.     0.2     0.2     0.1     0.1     0.1     0.1     0.2     0.2     0.0     0.0     0.0     0.0     0.0     0.0     0.0     0.0     0.1     0.1     0.0     0.0     0.0     0.0     0.4     0.3
 2020 245   116    0.06    0.01    0.06    1668    0.02   128.9   0.000   0.129   0.018   0.141     1.0     0.2     1.0   16471     0.0    1119    0.00    1.12    0.00    1.03     0.0     0.0     0.0     0.0     0.0     0.0     0.0     0.0    121.    168.    134.    131.     57.     61.    230.    216.     0.1     0.2     0.1     0.1     0.1     0.1     0.2     0.2     0.0     0.0     0.0     0.0     0.0     0.0     0.0     0.0     0.1     0.1     0.1     0.1     0.0     0.1     0.3     0.3
 2020 246   117    0.06    0.01    0.06    1684    0.02   130.6   0.000   0.131   0.018   0.142     1.0     0.2     1.0   15316     0.0    1709    0.00    1.71    0.03    1.28     0.0     0.0     0.0     0.0     0.0     0.0     0.0     0.0    102.    364.    359.    358.     52.     56.    214.    205.     0.1     0.4     0.4     0.4     0.1     0.1     0.2     0.2     0.0     0.0     0.0     0.0     0.0     0.0     0.0     0.0     0.1     0.2     0.2     0.2     0.0     0.1     0.3     0.3
 2020 247   118    0.06    0.01    0.06    1698    0.02   131.9   0.000   0.132   0.018   0.143     1.0     0.2     1.0   14737     0.0    1350    0.00    1.35    0.00    1.13     0.0     0.0     0.0     0.0     0.0     0.0     0.0     0.0     97.    237.    225.    226.     73.     79.    211.    202.     0.1     0.2     0.2     0.2     0.1     0.1     0.2     0.2     0.0     0.0     0.0     0.0     0.0     0.0     0.0     0.0     0.1     0.1     0.1     0.1     0.1     0.1     0.3     0.3
 2020 248   119    0.06    0.01    0.06    1713    0.02   133.2   0.000   0.133   0.018   0.144     1.0     0.2     1.0   14786     0.0    1247    0.00    1.25    0.00    1.08     0.0     0.0     0.0     0.0     0.0     0.0     0.0     0.0    102.    206.    190.    190.     63.     69.    220.    208.     0.1     0.2     0.2     0.2     0.1     0.1     0.2     0.2     0.0     0.0     0.0     0.0     0.0     0.0     0.0     0.0     0.1     0.1     0.1     0.1     0.1     0.1     0.3     0.3
 2020 249   120    0.07    0.01    0.06    1728    0.02   134.4   0.000   0.134   0.018   0.145     1.1     0.2     1.1   14474     0.0    1160    0.00    1.16    0.00    1.03     0.0     0.0     0.0     0.0     0.0     0.0     0.0     0.0     97.    184.    168.    168.     56.     62.    218.    207.     0.1     0.2     0.2     0.2     0.1     0.1     0.2     0.2     0.0     0.0     0.0     0.0     0.0     0.0     0.0     0.0     0.1     0.1     0.1     0.1     0.1     0.1     0.3     0.3
 2020 250   121    0.07    0.01    0.06    1743    0.02   135.6   0.000   0.136   0.018   0.146     1.1     0.2     1.1   15146     0.0    1245    0.00    1.25    0.00    1.11     0.0     0.0     0.0     0.0     0.0     0.0     0.0     0.0    107.    198.    179.    178.     60.     66.    237.    221.     0.1     0.2     0.2     0.2     0.1     0.1     0.2     0.2     0.0     0.0     0.0     0.0     0.0     0.0     0.0     0.0     0.1     0.1     0.1     0.1     0.1     0.1     0.3     0.3
 2020 251   122    0.07    0.01    0.07    1759    0.02   136.9   0.000   0.137   0.018   0.148     1.2     0.2     1.2   16040     0.0    1348    0.00    1.35    0.00    1.21     0.0     0.0     0.0     0.0     0.0     0.0     0.0     0.0    110.    218.    196.    194.     65.     71.    259.    236.     0.1     0.2     0.2     0.2     0.1     0.1     0.3     0.2     0.0     0.0     0.0     0.0     0.0     0.0     0.0     0.0     0.1     0.1     0.1     0.1     0.1     0.1     0.4     0.4
 2020 252   123    0.07    0.01    0.07    1775    0.02   138.3   0.000   0.138   0.018   0.149     1.2     0.3     1.2   16134     0.0    1319    0.00    1.32    0.00    1.19     0.0     0.0     0.0     0.0     0.0     0.0     0.0     0.0     96.    212.    192.    190.     64.     70.    258.    237.     0.1     0.2     0.2     0.2     0.1     0.1     0.3     0.2     0.0     0.0     0.0     0.0     0.0     0.0     0.0     0.0     0.1     0.1     0.1     0.1     0.1     0.1     0.4     0.4
 2020 253   124    0.07    0.01    0.07    1791    0.02   139.4   0.000   0.139   0.018   0.150     1.1     0.2     1.1   15527     0.0    1113    0.00    1.11    0.00    1.02     0.0     0.0     0.0     0.0     0.0     0.0     0.0     0.0     70.    173.    159.    159.     54.     60.    225.    213.     0.1     0.2     0.2     0.2     0.1     0.1     0.2     0.2     0.0     0.0     0.0     0.0     0.0     0.0     0.0     0.0     0.0     0.1     0.1     0.1     0.1     0.1     0.3     0.3
 2020 254   125    0.07    0.01    0.07    1803    0.02   139.9   0.000   0.140   0.018   0.150     0.4     0.1     0.4   12323     0.0     523    0.00    0.52    0.00    0.59     0.0     0.0     0.0     0.0     0.0     0.0     0.0     0.0     17.     36.     28.     28.     24.     29.    180.    179.     0.0     0.0     0.0     0.0     0.0     0.0     0.2     0.2     0.0     0.0     0.0     0.0     0.0     0.0     0.0     0.0     0.0     0.0     0.0     0.0     0.0     0.0     0.3     0.3
 2020 255   126    0.07    0.01    0.07    1813    0.02   140.4   0.000   0.140   0.018   0.151     0.6     0.1     0.7   10187     0.0     480    0.00    0.48    0.00    0.49     0.0     0.0     0.0     0.0     0.0     0.0     0.0     0.0     23.     46.     35.     34.     23.     26.    137.    157.     0.0     0.0     0.0     0.0     0.0     0.0     0.1     0.2     0.0     0.0     0.0     0.0     0.0     0.0     0.0     0.0     0.0     0.0     0.0     0.0     0.0     0.0     0.2     0.2
 2020 256   127    0.07    0.01    0.07    1822    0.02   140.9   0.000   0.141   0.018   0.151     0.9     0.2     0.9    8840     0.0     483    0.00    0.48    0.00    0.50     0.0     0.0     0.0     0.0     0.0     0.0     0.0     0.0     26.     50.     40.     42.     25.     28.    128.    145.     0.0     0.0     0.0     0.0     0.0     0.0     0.1     0.1     0.0     0.0     0.0     0.0     0.0     0.0     0.0     0.0     0.0     0.0     0.0     0.0     0.0     0.0     0.2     0.2
 2020 257   128    0.07    0.01    0.07    1830    0.02   141.5   0.000   0.142   0.018   0.152     1.1     0.2     1.1    8309     0.0     657    0.00    0.66    0.00    0.62     0.0     0.0     0.0     0.0     0.0     0.0     0.0     0.0     28.    123.    125.     46.     25.     29.    139.    142.     0.0     0.1     0.1     0.0     0.0     0.0     0.1     0.1     0.0     0.0     0.0     0.0     0.0     0.0     0.0     0.0     0.0     0.1     0.1     0.0     0.0     0.0     0.2     0.2
 2020 258   129    0.07    0.01    0.07    1840    0.02   142.5   0.000   0.142   0.018   0.153     1.1     0.2     1.1    9882     0.0     935    0.00    0.93    0.01    0.80     0.0     0.0     0.0     0.0     0.0     0.0     0.0     0.0     86.    138.    137.    170.     32.     51.    161.    160.     0.1     0.1     0.1     0.2     0.0     0.1     0.2     0.2     0.0     0.0     0.0     0.0     0.0     0.0     0.0     0.0     0.0     0.1     0.1     0.1     0.0     0.0     0.2     0.2
 2020 259   130    0.08    0.01    0.07    1852    0.02   143.6   0.000   0.144   0.018   0.154     1.1     0.2     1.1   12221     0.0    1147    0.00    1.15    0.00    0.99     0.0     0.0     0.0     0.0     0.0     0.0     0.0     0.0    106.    172.    166.    194.     61.     60.    198.    190.     0.1     0.2     0.2     0.2     0.1     0.1     0.2     0.2     0.0     0.0     0.0     0.0     0.0     0.0     0.0     0.0     0.1     0.1     0.1     0.1     0.1     0.1     0.3     0.3
 2020 260   131    0.08    0.01    0.07    1866    0.02   144.9   0.000   0.145   0.018   0.155     1.1     0.2     1.1   13873     0.0    1271    0.00    1.27    0.00    1.10     0.0     0.0     0.0     0.0     0.0     0.0     0.0     0.0    118.    196.    184.    202.     65.     67.    227.    212.     0.1     0.2     0.2     0.2     0.1     0.1     0.2     0.2     0.0     0.0     0.0     0.0     0.0     0.0     0.0     0.0     0.1     0.1     0.1     0.1     0.1     0.1     0.3     0.3
 2020 261   132    0.08    0.01    0.08    1881    0.02   146.1   0.000   0.146   0.018   0.156     1.1     0.2     1.2   14358     0.0    1241    0.00    1.24    0.00    1.10     0.0     0.0     0.0     0.0     0.0     0.0     0.0     0.0    111.    191.    178.    187.     62.     65.    232.    216.     0.1     0.2     0.2     0.2     0.1     0.1     0.2     0.2     0.0     0.0     0.0     0.0     0.0     0.0     0.0     0.0     0.1     0.1     0.1     0.1     0.1     0.1     0.3     0.3
 2020 262   133    0.08    0.01    0.08    1895    0.02   147.3   0.000   0.147   0.018   0.157     1.2     0.2     1.2   13986     0.0    1145    0.00    1.15    0.00    1.03     0.0     0.0     0.0     0.0     0.0     0.0     0.0     0.0     97.    173.    161.    166.     56.     61.    222.    210.     0.1     0.2     0.2     0.2     0.1     0.1     0.2     0.2     0.0     0.0     0.0     0.0     0.0     0.0     0.0     0.0     0.1     0.1     0.1     0.1     0.1     0.1     0.3     0.3
 2020 263   134    0.08    0.01    0.08    1908    0.02   148.4   0.000   0.148   0.018   0.158     1.2     0.2     1.3   13635     0.0    1090    0.00    1.09    0.00    1.00     0.0     0.0     0.0     0.0     0.0     0.0     0.0     0.0     85.    164.    153.    155.     53.     58.    217.    206.     0.1     0.2     0.2     0.2     0.1     0.1     0.2     0.2     0.0     0.0     0.0     0.0     0.0     0.0     0.0     0.0     0.0     0.1     0.1     0.1     0.0     0.1     0.3     0.3
 2020 264   135    0.08    0.01    0.08    1922    0.02   149.4   0.000   0.149   0.018   0.159     1.3     0.2     1.3   13559     0.0    1083    0.00    1.08    0.00    1.00     0.0     0.0     0.0     0.0     0.0     0.0     0.0     0.0     77.    163.    153.    154.     53.     58.    218.    207.     0.1     0.2     0.2     0.2     0.1     0.1     0.2     0.2     0.0     0.0     0.0     0.0     0.0     0.0     0.0     0.0     0.0     0.1     0.1     0.1     0.0     0.1     0.3     0.3
 2020 265   136    0.08    0.01    0.08    1935    0.02   150.5   0.000   0.151   0.018   0.160     1.3     0.2     1.4   13671     0.0    1099    0.00    1.10    0.00    1.02     0.0     0.0     0.0     0.0     0.0     0.0     0.0     0.0     71.    167.    157.    157.     54.     60.    223.    210.     0.1     0.2     0.2     0.2     0.1     0.1     0.2     0.2     0.0     0.0     0.0     0.0     0.0     0.0     0.0     0.0     0.0     0.1     0.1     0.1     0.1     0.1     0.3     0.3
 2020 266   137    0.08    0.01    0.08    1949    0.02   151.6   0.000   0.152   0.018   0.161     1.4     0.2     1.4   13730     0.0    1106    0.00    1.11    0.00    1.03     0.0     0.0     0.0     0.0     0.0     0.0     0.0     0.0     65.    169.    159.    159.     55.     61.    226.    213.     0.1     0.2     0.2     0.2     0.1     0.1     0.2     0.2     0.0     0.0     0.0     0.0     0.0     0.0     0.0     0.0     0.0     0.1     0.1     0.1     0.1     0.1     0.3     0.3
 2020 267   138    0.09    0.01    0.08    1963    0.02   152.8   0.000   0.153   0.018   0.162     1.4     0.2     1.4   13826     0.0    1117    0.00    1.12    0.00    1.04     0.0     0.0     0.0     0.0     0.0     0.0     0.0     0.0     58.    172.    162.    162.     56.     62.    229.    215.     0.1     0.2     0.2     0.2     0.1     0.1     0.2     0.2     0.0     0.0     0.0     0.0     0.0     0.0     0.0     0.0     0.0     0.1     0.1     0.1     0.1     0.1     0.3     0.3
 2020 268   139    0.09    0.01    0.09    1977    0.02   153.9   0.000   0.154   0.018   0.163     1.4     0.2     1.4   13926     0.0    1128    0.00    1.13    0.00    1.05     0.0     0.0     0.0     0.0     0.0     0.0     0.0     0.0     53.    175.    165.    165.     57.     63.    233.    218.     0.1     0.2     0.2     0.2     0.1     0.1     0.2     0.2     0.0     0.0     0.0     0.0     0.0     0.0     0.0     0.0     0.0     0.1     0.1     0.1     0.1     0.1     0.3     0.3
 2020 269   140    0.09    0.01    0.09    1991    0.02   155.1   0.000   0.155   0.018   0.164     1.4     0.2     1.4   14392     0.0    1187    0.00    1.19    0.00    1.10     0.0     0.0     0.0     0.0     0.0     0.0     0.0     0.0     50.    186.    176.    176.     61.     67.    245.    226.     0.0     0.2     0.2     0.2     0.1     0.1     0.2     0.2     0.0     0.0     0.0     0.0     0.0     0.0     0.0     0.0     0.0     0.1     0.1     0.1     0.1     0.1     0.4     0.3
 2020 270   141    0.09    0.01    0.09    2006    0.02   156.3   0.000   0.156   0.018   0.165     1.4     0.2     1.4   14816     0.0    1230    0.00    1.23    0.00    1.14     0.0     0.0     0.0     0.0     0.0     0.0     0.0     0.0     46.    195.    185.    184.     64.     70.    254.    233.     0.0     0.2     0.2     0.2     0.1     0.1     0.3     0.2     0.0     0.0     0.0     0.0     0.0     0.0     0.0     0.0     0.0     0.1     0.1     0.1     0.1     0.1     0.4     0.3
 2020 271   142    0.09    0.01    0.09    2021    0.02   157.6   0.000   0.158   0.018   0.167     1.4     0.2     1.4   15123     0.0    1252    0.00    1.25    0.00    1.16     0.0     0.0     0.0     0.0     0.0     0.0     0.0     0.0     38.    200.    190.    189.     65.     72.    260.    238.     0.0     0.2     0.2     0.2     0.1     0.1     0.3     0.2     0.0     0.0     0.0     0.0     0.0     0.0     0.0     0.0     0.0     0.1     0.1     0.1     0.1     0.1     0.4     0.4
 2020 272   143    0.09    0.01    0.09    2036    0.02   158.7   0.000   0.159   0.018   0.168     1.4     0.2     1.4   14522     0.0    1155    0.00    1.15    0.00    1.08     0.0     0.0     0.0     0.0     0.0     0.0     0.0     0.0     30.    181.    174.    174.     60.     66.    243.    226.     0.0     0.2     0.2     0.2     0.1     0.1     0.2     0.2     0.0     0.0     0.0     0.0     0.0     0.0     0.0     0.0     0.0     0.1     0.1     0.1     0.1     0.1     0.4     0.3
 2020 273   144    0.09    0.01    0.09    2049    0.02   159.8   0.000   0.160   0.018   0.169     1.4     0.2     1.4   13434     0.0    1056    0.00    1.06    0.00    1.00     0.0     0.0     0.0     0.0     0.0     0.0     0.0     0.0     23.    163.    157.    158.     55.     61.    226.    213.     0.0     0.2     0.2     0.2     0.1     0.1     0.2     0.2     0.0     0.0     0.0     0.0     0.0     0.0     0.0     0.0     0.0     0.1     0.1     0.1     0.1     0.1     0.3     0.3
 2020 274   145    0.10    0.01    0.09    2062    0.02   160.8   0.000   0.161   0.018   0.170     1.4     0.2     1.4   12635     0.0    1006    0.00    1.01    0.00    0.96     0.0     0.0     0.0     0.0     0.0     0.0     0.0     0.0     19.    154.    149.    150.     53.     58.    217.    206.     0.0     0.2     0.1     0.2     0.1     0.1     0.2     0.2     0.0     0.0     0.0     0.0     0.0     0.0     0.0     0.0     0.0     0.1     0.1     0.1     0.0     0.1     0.3     0.3
 2020 275   146    0.10    0.01    0.10    2073    0.02   161.7   0.000   0.162   0.018   0.170     1.4     0.2     1.4   11587     0.0     920    0.00    0.92    0.00    0.88     0.0     0.0     0.0     0.0     0.0     0.0     0.0     0.0     15.    137.    134.    136.     48.     53.    201.    194.     0.0     0.1     0.1     0.1     0.0     0.1     0.2     0.2     0.0     0.0     0.0     0.0     0.0     0.0     0.0     0.0     0.0     0.1     0.1     0.1     0.0     0.0     0.3     0.3
 2020 276   147    0.10    0.01    0.10    2084    0.02   162.5   0.000   0.163   0.018   0.171     1.3     0.2     1.4   10326     0.0     819    0.00    0.82    0.00    0.79     0.0     0.0     0.0     0.0     0.0     0.0     0.0     0.0     12.    119.    117.    119.     42.     47.    182.    180.     0.0     0.1     0.1     0.1     0.0     0.0     0.2     0.2     0.0     0.0     0.0     0.0     0.0     0.0     0.0     0.0     0.0     0.1     0.1     0.1     0.0     0.0     0.3     0.3
 2020 277   148    0.10    0.01    0.10    2094    0.02   163.4   0.000   0.163   0.018   0.172     1.3     0.2     1.4   10365     0.0     853    0.00    0.85    0.00    0.83     0.0     0.0     0.0     0.0     0.0     0.0     0.0     0.0     12.    124.    123.    125.     44.     49.    189.    186.     0.0     0.1     0.1     0.1     0.0     0.0     0.2     0.2     0.0     0.0     0.0     0.0     0.0     0.0     0.0     0.0     0.0     0.1     0.1     0.1     0.0     0.0     0.3     0.3
