*SIMULATION OVERVIEW FILE

*DSSAT Cropping System Model Ver. 4.7.5.035 -develop  JUN 14, 2021 09:08:55

*RUN   1        : 20 IRRIG, PETPEN NO KCB.. MZCER047 KSRT2001    1
 MODEL          : MZCER047 - Maize
 EXPERIMENT     : KSRT2001 SB ARM 2020 KS, IRRIGATED
 DATA PATH      :
 TREATMENT  1   : 20 IRRIG, PETPEN NO KCB.. MZCER047


 CROP           : Maize            CULTIVAR : PIO 3489         ECOTYPE :IB0001
 STARTING DATE  : APR 15 2020
 PLANTING DATE  : MAY 30 2020      PLANTS/m2 :     7.6    ROW SPACING :  76.cm
 WEATHER        : RT01   2020
 SOIL           : KSFC000004     TEXTURE : SIL   -   Richfield Silt Loam
 SOIL INITIAL C : DEPTH:201cm EXTR. H2O:351.5mm  NO3: 19.6kg/ha  NH4:  2.5kg/ha
 WATER BALANCE  : IRRIGATE ON REPORTED DATE(S)
 IRRIGATION     :      275 mm IN    11 APPLICATIONS
 NITROGEN BAL.  : SOIL-N & N-UPTAKE SIMULATION; NO N-FIXATION
 N-FERTILIZER   :        0 kg/ha IN     0 APPLICATIONS
 RESIDUE/MANURE : INITIAL :     0 kg/ha ;    1000 kg/ha IN     1 APPLICATIONS
 ENVIRONM. OPT. : DAYL=    0.00  SRAD=    0.00  TMAX=    0.00  TMIN=    0.00
                  RAIN=    0.00  CO2 =    0.00  DEW =    0.00  WIND=    0.00
 SIMULATION OPT : WATER   :Y  NITROGEN:Y  N-FIX:N  PHOSPH :N  PESTS  :N
                  PHOTO   :C  ET      :F  INFIL:S  HYDROL :R  SOM    :G
                  CO2 410ppm  NSWIT   :1  EVAP :S  SOIL   :2  STEMP  :D
 MANAGEMENT OPT : PLANTING:R  IRRIG   :R  FERT :R  RESIDUE:N  HARVEST:M
                  WEATHER :M  TILLAGE :Y

*SUMMARY OF SOIL AND GENETIC INPUT PARAMETERS

   SOIL LOWER UPPER   SAT  EXTR  INIT   ROOT   BULK     pH    NO3    NH4    ORG
  DEPTH LIMIT LIMIT    SW    SW    SW   DIST   DENS                          C
   cm   cm3/cm3    cm3/cm3    cm3/cm3         g/cm3         ugN/g  ugN/g     %
-------------------------------------------------------------------------------
  0-  5 0.202 0.414 0.488 0.212 0.300   1.00   1.25   7.20   0.80   0.10   2.05
  5- 15 0.202 0.414 0.488 0.212 0.300   1.00   1.25   7.20   0.80   0.10   2.05
 15- 29 0.263 0.454 0.517 0.191 0.300   0.56   1.18   7.50   0.80   0.10   1.55
 29- 43 0.263 0.454 0.517 0.191 0.300   0.56   1.18   7.50   0.80   0.10   1.55
 43- 53 0.190 0.388 0.522 0.198 0.300   0.34   1.18   7.50   0.80   0.10   0.70
 53- 64 0.190 0.388 0.522 0.198 0.300   0.34   1.18   7.50   0.80   0.10   0.70
 64-132 0.168 0.332 0.506 0.164 0.300   0.07   1.23   8.40   0.80   0.10   0.45
132-201 0.168 0.332 0.506 0.164 0.300   0.07   1.23   8.40   0.80   0.10   0.45

TOT-201  37.4  72.6 102.1  35.2  60.3  <--cm   -  kg/ha-->   19.6    2.5 182825
SOIL ALBEDO    : 0.13      EVAPORATION LIMIT : 6.00         MIN. FACTOR  : 1.00
RUNOFF CURVE # :61.00      DRAINAGE RATE     : 0.60         FERT. FACTOR : 1.00

 Maize      CULTIVAR :IB1066-PIO 3489           ECOTYPE :IB0001
 P1     : 225.00  P2     : 0.6000  P5     : 895.00
 G2     : 875.00  G3     :  8.800  PHINT  : 48.000


*SIMULATED CROP AND SOIL STATUS AT MAIN DEVELOPMENT STAGES

 RUN NO.     1     20 IRRIG, PETPEN NO KCB.

        CROP GROWTH     BIOMASS         LEAF   CROP N     STRESS      STRESS                                           
   DATE  AGE STAGE        kg/ha    LAI   NUM  kg/ha  %   H2O  Nitr Phos1 Phos2  RSTG                                   
 ------  --- ----------   -----  -----  ----  ---  ---  ----  ----  ----  ----  ----                                   
 15 APR    0 Start Sim        0   0.00   0.0    0  0.0  0.00  0.00  0.00  0.00     7
 30 MAY    0 Sowing           0   0.00   0.0    0  0.0  0.00  0.00  0.00  0.00     8
 31 MAY    1 Germinate        0   0.00   0.0    0  0.0  0.00  0.00  0.00  0.00     9
  4 JUN    5 Emergence       30   0.00   2.1    1  4.4  0.00  0.01  0.00  0.00     1
 16 JUN   17 End Juveni     155   0.32   7.5    5  3.3  0.00  0.00  0.00  0.00     2
 23 JUN   24 Floral Ini     483   0.84  10.1   17  3.6  0.00  0.00  0.00  0.00     3
 28 JUL   59 75% Silkin    4571   1.71  20.7   48  1.0  0.33  0.39  0.00  0.00     4
  8 AUG   70 Beg Gr Fil    6382   1.27  20.7   53  0.8  0.00  0.53  0.00  0.00     5
 27 SEP  120 End Gr Fil   10109   0.23  20.7   76  0.7  0.12  0.59  0.00  0.00     6
  3 OCT  126 Maturity     10109   0.23  20.7   76  0.7  0.00  0.42  0.00  0.00    10
  3 OCT  126 Harvest      10109   0.23  20.7   76  0.7  0.00  0.00  0.00  0.00    10


*MAIN GROWTH AND DEVELOPMENT VARIABLES

@     VARIABLE                                         SIMULATED     MEASURED
      --------                                         ---------     --------
      Anthesis day (dap)                                      59          -99
      Physiological maturity day (dap)                       126          -99
      Yield at harvest maturity (kg [dm]/ha)                5468          -99
      Number at maturity (no/m2)                            1431          -99
      Unit wt at maturity (g [dm]/unit)                   0.3822          -99
      Number at maturity (no/unit)                         188.3          -99
      Tops weight at maturity (kg [dm]/ha)                 10109          -99
      By-product produced (stalk) at maturity (kg[dm]/ha    4694          -99
      Leaf area index, maximum                              2.26          -99
      Harvest index at maturity                            0.541          -99
      Grain N at maturity (kg/ha)                             52          -99
      Tops N at maturity (kg/ha)                              76          -99
      Stem N at maturity (kg/ha)                              24          -99
      Grain N at maturity (%)                                0.9          -99
      Tops weight at anthesis (kg [dm]/ha)                  4485          -99
      Tops N at anthesis (kg/ha)                              47          -99
      Leaf number per stem at maturity                     20.73          -99
      Emergence day (dap)                                      5          -99


*ENVIRONMENTAL AND STRESS FACTORS

 |-----Development Phase------|--------------------------------------Environment--------------------------------------|-----------------Stress-----------------|
                              |---------------Average--------------|-----Cumulative-----|--------Count of days--------|          (0=Min, 1=Max Stress)         |
                         Time  Temp  Temp  Temp Solar Photop                Evapo    Pot TMIN TMIN TMAX TMAX TMAX RAIN|----Water----|---Nitrogen--|-Phosphorus-|
                         Span   Max   Min  Mean   Rad  [day]    CO2   Rain  Trans     ET   <    <    >    >    >    >   Photo         Photo         Photo
                         days    øC    øC    øC MJ/m2     hr    ppm     mm     mm     mm  0øC  2øC 30øC 32øC 34øC  0mm  synth Growth  synth Growth  synth Growth
----------------------------------------------------------------------------------------------------------------------------------------------------------------
 Emergence-End Juvenile    12  34.8  16.3  25.5  25.1  14.58  410.5   12.9   48.1  120.5    0    0   10   10    9    2  0.000  0.000  0.002  0.005  0.000  0.000
 End Juvenil-Floral Init    7  32.1  16.6  24.4  24.0  14.64  410.5    0.5   29.9   58.7    0    0    6    4    3    1  0.000  0.000  0.001  0.002  0.000  0.000
 Floral Init-End Lf Grow   35  34.0  18.4  26.2  24.2  14.43  410.5   63.7  166.8  252.8    0    0   31   27   18    6  0.245  0.325  0.166  0.377  0.000  0.000
 End Lf Grth-Beg Grn Fil   11  28.5  16.4  22.5  21.5  13.90  410.5   29.7   50.8   51.9    0    0    3    0    0    5  0.000  0.000  0.244  0.537  0.000  0.000
 Grain Filling Phase       50  30.0  13.3  21.6  19.4  12.75  410.5   76.8  173.8  244.2    0    1   31   22   11    6  0.083  0.121  0.309  0.590  0.000  0.000
   
 Planting to Harvest      126  31.5  15.2  23.3  22.0  13.61  410.5  183.6  488.1  807.5    0    1   86   68   46   20  0.101  0.138  0.198  0.406  0.000  0.000
----------------------------------------------------------------------------------------------------------------------------------------------------------------


*Resource Productivity
 Growing season length: 126 days 

 Precipitation during growing season       183.6 mm[rain]
   Dry Matter Productivity                  5.51 kg[DM]/m3[rain]          =   55.1 kg[DM]/ha per mm[rain]
   Yield Productivity                       2.98 kg[grain yield]/m3[rain] =   29.8 kg[yield]/ha per mm[rain]

 Evapotranspiration during growing season  488.1 mm[ET]
   Dry Matter Productivity                  2.07 kg[DM]/m3[ET]            =   20.7 kg[DM]/ha per mm[ET]
   Yield Productivity                       1.12 kg[grain yield]/m3[ET]   =   11.2 kg[yield]/ha per mm[ET]

 Transpiration during growing season       259.6 mm[EP]
   Dry Matter Productivity                  3.89 kg[DM]/m3[EP]            =   38.9 kg[DM]/ha per mm[EP]
   Yield Productivity                       2.11 kg[grain yield]/m3[EP]   =   21.1 kg[yield]/ha per mm[EP]

 Irrigation during growing season          275.0 mm[irrig]
   Dry Matter Productivity                  3.68 kg[DM]/m3[irrig]         =   36.8 kg[DM]/ha per mm[irrig]
   Yield Productivity                       1.99 kg[grain yield]/m3[irrig]=   19.9 kg[yield]/ha per mm[irrig]

 N uptake during growing season               97 kg[N uptake]/ha
   Dry Matter Productivity                 104.2 kg[DM]/kg[N uptake]
   Yield Productivity                       56.4 kg[yield]/kg[N uptake]

--------------------------------------------------------------------------------------------------------------

                     Maize YIELD :     5468 kg/ha    [Dry weight] 

**************************************************************************************************************

*DSSAT Cropping System Model Ver. 4.7.5.035 -develop  JUN 14, 2021 09:08:55

*RUN   2        : 20 IRRIG, PETPEN KCB..... MZCER047 KSRT2001    2
 MODEL          : MZCER047 - Maize
 EXPERIMENT     : KSRT2001 SB ARM 2020 KS, IRRIGATED
 DATA PATH      :
 TREATMENT  2   : 20 IRRIG, PETPEN KCB..... MZCER047


 CROP           : Maize            CULTIVAR : PIO 3489         ECOTYPE :IB0001
 STARTING DATE  : APR 15 2020
 PLANTING DATE  : MAY 30 2020      PLANTS/m2 :     7.6    ROW SPACING :  76.cm
 WEATHER        : RT01   2020
 SOIL           : KSFC000004     TEXTURE : SIL   -   Richfield Silt Loam
 SOIL INITIAL C : DEPTH:201cm EXTR. H2O:351.5mm  NO3: 19.6kg/ha  NH4:  2.5kg/ha
 WATER BALANCE  : IRRIGATE ON REPORTED DATE(S)
 IRRIGATION     :      275 mm IN    11 APPLICATIONS
 NITROGEN BAL.  : SOIL-N & N-UPTAKE SIMULATION; NO N-FIXATION
 N-FERTILIZER   :        0 kg/ha IN     0 APPLICATIONS
 RESIDUE/MANURE : INITIAL :     0 kg/ha ;    1000 kg/ha IN     1 APPLICATIONS
 ENVIRONM. OPT. : DAYL=    0.00  SRAD=    0.00  TMAX=    0.00  TMIN=    0.00
                  RAIN=    0.00  CO2 =    0.00  DEW =    0.00  WIND=    0.00
 SIMULATION OPT : WATER   :Y  NITROGEN:Y  N-FIX:N  PHOSPH :N  PESTS  :N
                  PHOTO   :C  ET      :F  INFIL:S  HYDROL :R  SOM    :G
                  CO2 410ppm  NSWIT   :1  EVAP :S  SOIL   :2  STEMP  :D
 MANAGEMENT OPT : PLANTING:R  IRRIG   :R  FERT :R  RESIDUE:N  HARVEST:M
                  WEATHER :M  TILLAGE :Y

*SUMMARY OF SOIL AND GENETIC INPUT PARAMETERS

   SOIL LOWER UPPER   SAT  EXTR  INIT   ROOT   BULK     pH    NO3    NH4    ORG
  DEPTH LIMIT LIMIT    SW    SW    SW   DIST   DENS                          C
   cm   cm3/cm3    cm3/cm3    cm3/cm3         g/cm3         ugN/g  ugN/g     %
-------------------------------------------------------------------------------
  0-  5 0.202 0.414 0.488 0.212 0.300   1.00   1.25   7.20   0.80   0.10   2.05
  5- 15 0.202 0.414 0.488 0.212 0.300   1.00   1.25   7.20   0.80   0.10   2.05
 15- 29 0.263 0.454 0.517 0.191 0.300   0.56   1.18   7.50   0.80   0.10   1.55
 29- 43 0.263 0.454 0.517 0.191 0.300   0.56   1.18   7.50   0.80   0.10   1.55
 43- 53 0.190 0.388 0.522 0.198 0.300   0.34   1.18   7.50   0.80   0.10   0.70
 53- 64 0.190 0.388 0.522 0.198 0.300   0.34   1.18   7.50   0.80   0.10   0.70
 64-132 0.168 0.332 0.506 0.164 0.300   0.07   1.23   8.40   0.80   0.10   0.45
132-201 0.168 0.332 0.506 0.164 0.300   0.07   1.23   8.40   0.80   0.10   0.45

TOT-201  37.4  72.6 102.1  35.2  60.3  <--cm   -  kg/ha-->   19.6    2.5 182825
SOIL ALBEDO    : 0.13      EVAPORATION LIMIT : 6.00         MIN. FACTOR  : 1.00
RUNOFF CURVE # :61.00      DRAINAGE RATE     : 0.60         FERT. FACTOR : 1.00

 Maize      CULTIVAR :IB1066-PIO 3489           ECOTYPE :IB0001
 P1     : 225.00  P2     : 0.6000  P5     : 895.00
 G2     : 875.00  G3     :  8.800  PHINT  : 48.000


*SIMULATED CROP AND SOIL STATUS AT MAIN DEVELOPMENT STAGES

 RUN NO.     2     20 IRRIG, PETPEN KCB....

        CROP GROWTH     BIOMASS         LEAF   CROP N     STRESS      STRESS                                           
   DATE  AGE STAGE        kg/ha    LAI   NUM  kg/ha  %   H2O  Nitr Phos1 Phos2  RSTG                                   
 ------  --- ----------   -----  -----  ----  ---  ---  ----  ----  ----  ----  ----                                   
 15 APR    0 Start Sim        0   0.00   0.0    0  0.0  0.00  0.00  0.00  0.00     7
 30 MAY    0 Sowing           0   0.00   0.0    0  0.0  0.00  0.00  0.00  0.00     8
 31 MAY    1 Germinate        0   0.00   0.0    0  0.0  0.00  0.00  0.00  0.00     9
  4 JUN    5 Emergence       30   0.00   2.1    1  4.4  0.00  0.01  0.00  0.00     1
 16 JUN   17 End Juveni      36   0.06   7.5    1  3.7  0.76  0.00  0.00  0.00     2
 23 JUN   24 Floral Ini     120   0.23  10.1    4  3.7  0.62  0.00  0.00  0.00     3
 28 JUL   59 75% Silkin    5991   2.48  20.7   67  1.1  0.12  0.26  0.00  0.00     4
  8 AUG   70 Beg Gr Fil    8368   1.87  20.7   73  0.9  0.00  0.50  0.00  0.00     5
 27 SEP  120 End Gr Fil   12355   0.29  20.7   89  0.7  0.22  0.60  0.00  0.00     6
  3 OCT  126 Maturity     12355   0.29  20.7   89  0.7  0.00  0.53  0.00  0.00    10
  3 OCT  126 Harvest      12355   0.29  20.7   89  0.7  0.00  0.00  0.00  0.00    10


*MAIN GROWTH AND DEVELOPMENT VARIABLES

@     VARIABLE                                         SIMULATED     MEASURED
      --------                                         ---------     --------
      Anthesis day (dap)                                      59          -99
      Physiological maturity day (dap)                       126          -99
      Yield at harvest maturity (kg [dm]/ha)                6214          -99
      Number at maturity (no/m2)                            1855          -99
      Unit wt at maturity (g [dm]/unit)                   0.3350          -99
      Number at maturity (no/unit)                         244.1          -99
      Tops weight at maturity (kg [dm]/ha)                 12355          -99
      By-product produced (stalk) at maturity (kg[dm]/ha    6199          -99
      Leaf area index, maximum                              2.95          -99
      Harvest index at maturity                            0.503          -99
      Grain N at maturity (kg/ha)                             58          -99
      Tops N at maturity (kg/ha)                              89          -99
      Stem N at maturity (kg/ha)                              30          -99
      Grain N at maturity (%)                                0.9          -99
      Tops weight at anthesis (kg [dm]/ha)                  5878          -99
      Tops N at anthesis (kg/ha)                              67          -99
      Leaf number per stem at maturity                     20.73          -99
      Emergence day (dap)                                      5          -99


*ENVIRONMENTAL AND STRESS FACTORS

 |-----Development Phase------|--------------------------------------Environment--------------------------------------|-----------------Stress-----------------|
                              |---------------Average--------------|-----Cumulative-----|--------Count of days--------|          (0=Min, 1=Max Stress)         |
                         Time  Temp  Temp  Temp Solar Photop                Evapo    Pot TMIN TMIN TMAX TMAX TMAX RAIN|----Water----|---Nitrogen--|-Phosphorus-|
                         Span   Max   Min  Mean   Rad  [day]    CO2   Rain  Trans     ET   <    <    >    >    >    >   Photo         Photo         Photo
                         days    øC    øC    øC MJ/m2     hr    ppm     mm     mm     mm  0øC  2øC 30øC 32øC 34øC  0mm  synth Growth  synth Growth  synth Growth
----------------------------------------------------------------------------------------------------------------------------------------------------------------
 Emergence-End Juvenile    12  34.8  16.3  25.5  25.1  14.58  410.5   12.9   43.2   37.1    0    0   10   10    9    2  0.584  0.695  0.002  0.005  0.000  0.000
 End Juvenil-Floral Init    7  32.1  16.6  24.4  24.0  14.64  410.5    0.5   25.7   24.8    0    0    6    4    3    1  0.508  0.673  0.000  0.000  0.000  0.000
 Floral Init-End Lf Grow   35  34.0  18.4  26.2  24.2  14.43  410.5   63.7  225.3  196.1    0    0   31   27   18    6  0.058  0.132  0.108  0.250  0.000  0.000
 End Lf Grth-Beg Grn Fil   11  28.5  16.4  22.5  21.5  13.90  410.5   29.7   55.7   45.8    0    0    3    0    0    5  0.000  0.000  0.206  0.505  0.000  0.000
 Grain Filling Phase       50  30.0  13.3  21.6  19.4  12.75  410.5   76.8  106.4  118.8    0    1   31   22   11    6  0.192  0.224  0.322  0.601  0.000  0.000
   
 Planting to Harvest      126  31.5  15.2  23.3  22.0  13.61  410.5  183.6  456.2  422.6    0    1   86   68   46   20  0.176  0.229  0.187  0.378  0.000  0.000
----------------------------------------------------------------------------------------------------------------------------------------------------------------


*Resource Productivity
 Growing season length: 126 days 

 Precipitation during growing season       183.6 mm[rain]
   Dry Matter Productivity                  6.73 kg[DM]/m3[rain]          =   67.3 kg[DM]/ha per mm[rain]
   Yield Productivity                       3.38 kg[grain yield]/m3[rain] =   33.8 kg[yield]/ha per mm[rain]

 Evapotranspiration during growing season  456.2 mm[ET]
   Dry Matter Productivity                  2.71 kg[DM]/m3[ET]            =   27.1 kg[DM]/ha per mm[ET]
   Yield Productivity                       1.36 kg[grain yield]/m3[ET]   =   13.6 kg[yield]/ha per mm[ET]

 Transpiration during growing season       324.8 mm[EP]
   Dry Matter Productivity                  3.80 kg[DM]/m3[EP]            =   38.0 kg[DM]/ha per mm[EP]
   Yield Productivity                       1.91 kg[grain yield]/m3[EP]   =   19.1 kg[yield]/ha per mm[EP]

 Irrigation during growing season          275.0 mm[irrig]
   Dry Matter Productivity                  4.49 kg[DM]/m3[irrig]         =   44.9 kg[DM]/ha per mm[irrig]
   Yield Productivity                       2.26 kg[grain yield]/m3[irrig]=   22.6 kg[yield]/ha per mm[irrig]

 N uptake during growing season              104 kg[N uptake]/ha
   Dry Matter Productivity                 118.8 kg[DM]/kg[N uptake]
   Yield Productivity                       59.8 kg[yield]/kg[N uptake]

--------------------------------------------------------------------------------------------------------------

                     Maize YIELD :     6214 kg/ha    [Dry weight] 

**************************************************************************************************************

*DSSAT Cropping System Model Ver. 4.7.5.035 -develop  JUN 14, 2021 09:08:55

*RUN   3        : 20 IRRIG, ASCE SHORT..... MZCER047 KSRT2001    3
 MODEL          : MZCER047 - Maize
 EXPERIMENT     : KSRT2001 SB ARM 2020 KS, IRRIGATED
 DATA PATH      :
 TREATMENT  3   : 20 IRRIG, ASCE SHORT..... MZCER047


 CROP           : Maize            CULTIVAR : PIO 3489         ECOTYPE :IB0001
 STARTING DATE  : APR 15 2020
 PLANTING DATE  : MAY 30 2020      PLANTS/m2 :     7.6    ROW SPACING :  76.cm
 WEATHER        : RT01   2020
 SOIL           : KSFC000004     TEXTURE : SIL   -   Richfield Silt Loam
 SOIL INITIAL C : DEPTH:201cm EXTR. H2O:351.5mm  NO3: 19.6kg/ha  NH4:  2.5kg/ha
 WATER BALANCE  : IRRIGATE ON REPORTED DATE(S)
 IRRIGATION     :      275 mm IN    11 APPLICATIONS
 NITROGEN BAL.  : SOIL-N & N-UPTAKE SIMULATION; NO N-FIXATION
 N-FERTILIZER   :        0 kg/ha IN     0 APPLICATIONS
 RESIDUE/MANURE : INITIAL :     0 kg/ha ;    1000 kg/ha IN     1 APPLICATIONS
 ENVIRONM. OPT. : DAYL=    0.00  SRAD=    0.00  TMAX=    0.00  TMIN=    0.00
                  RAIN=    0.00  CO2 =    0.00  DEW =    0.00  WIND=    0.00
 SIMULATION OPT : WATER   :Y  NITROGEN:Y  N-FIX:N  PHOSPH :N  PESTS  :N
                  PHOTO   :C  ET      :S  INFIL:S  HYDROL :R  SOM    :G
                  CO2 410ppm  NSWIT   :1  EVAP :S  SOIL   :2  STEMP  :D
 MANAGEMENT OPT : PLANTING:R  IRRIG   :R  FERT :R  RESIDUE:N  HARVEST:M
                  WEATHER :M  TILLAGE :Y

*SUMMARY OF SOIL AND GENETIC INPUT PARAMETERS

   SOIL LOWER UPPER   SAT  EXTR  INIT   ROOT   BULK     pH    NO3    NH4    ORG
  DEPTH LIMIT LIMIT    SW    SW    SW   DIST   DENS                          C
   cm   cm3/cm3    cm3/cm3    cm3/cm3         g/cm3         ugN/g  ugN/g     %
-------------------------------------------------------------------------------
  0-  5 0.202 0.414 0.488 0.212 0.300   1.00   1.25   7.20   0.80   0.10   2.05
  5- 15 0.202 0.414 0.488 0.212 0.300   1.00   1.25   7.20   0.80   0.10   2.05
 15- 29 0.263 0.454 0.517 0.191 0.300   0.56   1.18   7.50   0.80   0.10   1.55
 29- 43 0.263 0.454 0.517 0.191 0.300   0.56   1.18   7.50   0.80   0.10   1.55
 43- 53 0.190 0.388 0.522 0.198 0.300   0.34   1.18   7.50   0.80   0.10   0.70
 53- 64 0.190 0.388 0.522 0.198 0.300   0.34   1.18   7.50   0.80   0.10   0.70
 64-132 0.168 0.332 0.506 0.164 0.300   0.07   1.23   8.40   0.80   0.10   0.45
132-201 0.168 0.332 0.506 0.164 0.300   0.07   1.23   8.40   0.80   0.10   0.45

TOT-201  37.4  72.6 102.1  35.2  60.3  <--cm   -  kg/ha-->   19.6    2.5 182825
SOIL ALBEDO    : 0.13      EVAPORATION LIMIT : 6.00         MIN. FACTOR  : 1.00
RUNOFF CURVE # :61.00      DRAINAGE RATE     : 0.60         FERT. FACTOR : 1.00

 Maize      CULTIVAR :IB1066-PIO 3489           ECOTYPE :IB0001
 P1     : 225.00  P2     : 0.6000  P5     : 895.00
 G2     : 875.00  G3     :  8.800  PHINT  : 48.000


*SIMULATED CROP AND SOIL STATUS AT MAIN DEVELOPMENT STAGES

 RUN NO.     3     20 IRRIG, ASCE SHORT....

        CROP GROWTH     BIOMASS         LEAF   CROP N     STRESS      STRESS                                           
   DATE  AGE STAGE        kg/ha    LAI   NUM  kg/ha  %   H2O  Nitr Phos1 Phos2  RSTG                                   
 ------  --- ----------   -----  -----  ----  ---  ---  ----  ----  ----  ----  ----                                   
 15 APR    0 Start Sim        0   0.00   0.0    0  0.0  0.00  0.00  0.00  0.00     7
 30 MAY    0 Sowing           0   0.00   0.0    0  0.0  0.00  0.00  0.00  0.00     8
 31 MAY    1 Germinate        0   0.00   0.0    0  0.0  0.00  0.00  0.00  0.00     9
  4 JUN    5 Emergence       30   0.00   2.1    1  4.4  0.00  0.01  0.00  0.00     1
 16 JUN   17 End Juveni     155   0.32   7.5    5  3.3  0.00  0.00  0.00  0.00     2
 23 JUN   24 Floral Ini     483   0.84  10.1   17  3.6  0.00  0.00  0.00  0.00     3
 28 JUL   59 75% Silkin    3481   1.26  20.7   43  1.2  0.51  0.31  0.00  0.00     4
  8 AUG   70 Beg Gr Fil    5264   1.04  20.7   53  1.0  0.00  0.34  0.00  0.00     5
 27 SEP  120 End Gr Fil    9871   0.29  20.7   89  0.9  0.07  0.40  0.00  0.00     6
  3 OCT  126 Maturity      9871   0.29  20.7   89  0.9  0.00  0.12  0.00  0.00    10
  3 OCT  126 Harvest       9871   0.29  20.7   89  0.9  0.00  0.00  0.00  0.00    10


*MAIN GROWTH AND DEVELOPMENT VARIABLES

@     VARIABLE                                         SIMULATED     MEASURED
      --------                                         ---------     --------
      Anthesis day (dap)                                      59          -99
      Physiological maturity day (dap)                       126          -99
      Yield at harvest maturity (kg [dm]/ha)                5921          -99
      Number at maturity (no/m2)                            1917          -99
      Unit wt at maturity (g [dm]/unit)                   0.3088          -99
      Number at maturity (no/unit)                         252.2          -99
      Tops weight at maturity (kg [dm]/ha)                  9871          -99
      By-product produced (stalk) at maturity (kg[dm]/ha    3995          -99
      Leaf area index, maximum                              1.93          -99
      Harvest index at maturity                            0.600          -99
      Grain N at maturity (kg/ha)                             67          -99
      Tops N at maturity (kg/ha)                              89          -99
      Stem N at maturity (kg/ha)                              22          -99
      Grain N at maturity (%)                                1.1          -99
      Tops weight at anthesis (kg [dm]/ha)                  3398          -99
      Tops N at anthesis (kg/ha)                              42          -99
      Leaf number per stem at maturity                     20.73          -99
      Emergence day (dap)                                      5          -99


*ENVIRONMENTAL AND STRESS FACTORS

 |-----Development Phase------|--------------------------------------Environment--------------------------------------|-----------------Stress-----------------|
                              |---------------Average--------------|-----Cumulative-----|--------Count of days--------|          (0=Min, 1=Max Stress)         |
                         Time  Temp  Temp  Temp Solar Photop                Evapo    Pot TMIN TMIN TMAX TMAX TMAX RAIN|----Water----|---Nitrogen--|-Phosphorus-|
                         Span   Max   Min  Mean   Rad  [day]    CO2   Rain  Trans     ET   <    <    >    >    >    >   Photo         Photo         Photo
                         days    øC    øC    øC MJ/m2     hr    ppm     mm     mm     mm  0øC  2øC 30øC 32øC 34øC  0mm  synth Growth  synth Growth  synth Growth
----------------------------------------------------------------------------------------------------------------------------------------------------------------
 Emergence-End Juvenile    12  34.8  16.3  25.5  25.1  14.58  410.5   12.9   49.9  148.6    0    0   10   10    9    2  0.000  0.000  0.002  0.005  0.000  0.000
 End Juvenil-Floral Init    7  32.1  16.6  24.4  24.0  14.64  410.5    0.5   32.1   73.8    0    0    6    4    3    1  0.000  0.000  0.001  0.002  0.000  0.000
 Floral Init-End Lf Grow   35  34.0  18.4  26.2  24.2  14.43  410.5   63.7  136.5  317.2    0    0   31   27   18    6  0.446  0.513  0.120  0.300  0.000  0.000
 End Lf Grth-Beg Grn Fil   11  28.5  16.4  22.5  21.5  13.90  410.5   29.7   53.1   61.6    0    0    3    0    0    5  0.000  0.000  0.142  0.354  0.000  0.000
 Grain Filling Phase       50  30.0  13.3  21.6  19.4  12.75  410.5   76.8  190.6  299.3    0    1   31   22   11    6  0.042  0.074  0.189  0.406  0.000  0.000
   
 Planting to Harvest      126  31.5  15.2  23.3  22.0  13.61  410.5  183.6  481.7  997.8    0    1   86   68   46   20  0.141  0.172  0.123  0.282  0.000  0.000
----------------------------------------------------------------------------------------------------------------------------------------------------------------


*Resource Productivity
 Growing season length: 126 days 

 Precipitation during growing season       183.6 mm[rain]
   Dry Matter Productivity                  5.38 kg[DM]/m3[rain]          =   53.8 kg[DM]/ha per mm[rain]
   Yield Productivity                       3.22 kg[grain yield]/m3[rain] =   32.2 kg[yield]/ha per mm[rain]

 Evapotranspiration during growing season  481.7 mm[ET]
   Dry Matter Productivity                  2.05 kg[DM]/m3[ET]            =   20.5 kg[DM]/ha per mm[ET]
   Yield Productivity                       1.23 kg[grain yield]/m3[ET]   =   12.3 kg[yield]/ha per mm[ET]

 Transpiration during growing season       245.6 mm[EP]
   Dry Matter Productivity                  4.02 kg[DM]/m3[EP]            =   40.2 kg[DM]/ha per mm[EP]
   Yield Productivity                       2.41 kg[grain yield]/m3[EP]   =   24.1 kg[yield]/ha per mm[EP]

 Irrigation during growing season          275.0 mm[irrig]
   Dry Matter Productivity                  3.59 kg[DM]/m3[irrig]         =   35.9 kg[DM]/ha per mm[irrig]
   Yield Productivity                       2.15 kg[grain yield]/m3[irrig]=   21.5 kg[yield]/ha per mm[irrig]

 N uptake during growing season              105 kg[N uptake]/ha
   Dry Matter Productivity                  94.0 kg[DM]/kg[N uptake]
   Yield Productivity                       56.4 kg[yield]/kg[N uptake]

--------------------------------------------------------------------------------------------------------------

                     Maize YIELD :     5921 kg/ha    [Dry weight] 

**************************************************************************************************************
