*SIMULATION OVERVIEW FILE

*DSSAT Cropping System Model Ver. 4.7.5.035 -develop  JUN 14, 2021 14:17:00

*RUN   1        : 20 IRRIG, PETPEN NO KCB.. MZCER047 KSRT2001    1
 MODEL          : MZCER047 - Maize
 EXPERIMENT     : KSRT2001 SB ARM 2020 KS, IRRIGATED
 DATA PATH      :
 TREATMENT  1   : 20 IRRIG, PETPEN NO KCB.. MZCER047


 CROP           : Maize            CULTIVAR : PIO 3489         ECOTYPE :IB0001
 STARTING DATE  : APR 15 2020
 PLANTING DATE  : MAY 30 2020      PLANTS/m2 :     7.6    ROW SPACING :  76.cm
 WEATHER        : RT01   2020
 SOIL           : KSFC000004     TEXTURE : SIL   -   Richfield Silt Loam
 SOIL INITIAL C : DEPTH:201cm EXTR. H2O:351.5mm  NO3: 19.6kg/ha  NH4:  2.5kg/ha
 WATER BALANCE  : IRRIGATE ON REPORTED DATE(S)
 IRRIGATION     :      279 mm IN    11 APPLICATIONS
 NITROGEN BAL.  : SOIL-N & N-UPTAKE SIMULATION; NO N-FIXATION
 N-FERTILIZER   :      255 kg/ha IN     1 APPLICATIONS
 RESIDUE/MANURE : INITIAL :     0 kg/ha ;    1000 kg/ha IN     1 APPLICATIONS
 ENVIRONM. OPT. : DAYL=    0.00  SRAD=    0.00  TMAX=    0.00  TMIN=    0.00
                  RAIN=    0.00  CO2 =    0.00  DEW =    0.00  WIND=    0.00
 SIMULATION OPT : WATER   :Y  NITROGEN:Y  N-FIX:N  PHOSPH :N  PESTS  :N
                  PHOTO   :C  ET      :F  INFIL:S  HYDROL :R  SOM    :G
                  CO2 410ppm  NSWIT   :1  EVAP :S  SOIL   :2  STEMP  :D
 MANAGEMENT OPT : PLANTING:R  IRRIG   :R  FERT :R  RESIDUE:N  HARVEST:M
                  WEATHER :M  TILLAGE :Y

*SUMMARY OF SOIL AND GENETIC INPUT PARAMETERS

   SOIL LOWER UPPER   SAT  EXTR  INIT   ROOT   BULK     pH    NO3    NH4    ORG
  DEPTH LIMIT LIMIT    SW    SW    SW   DIST   DENS                          C
   cm   cm3/cm3    cm3/cm3    cm3/cm3         g/cm3         ugN/g  ugN/g     %
-------------------------------------------------------------------------------
  0-  5 0.202 0.414 0.488 0.212 0.300   1.00   1.25   7.20   0.80   0.10   2.05
  5- 15 0.202 0.414 0.488 0.212 0.300   1.00   1.25   7.20   0.80   0.10   2.05
 15- 29 0.263 0.454 0.517 0.191 0.300   0.56   1.18   7.50   0.80   0.10   1.55
 29- 43 0.263 0.454 0.517 0.191 0.300   0.56   1.18   7.50   0.80   0.10   1.55
 43- 53 0.190 0.388 0.522 0.198 0.300   0.34   1.18   7.50   0.80   0.10   0.70
 53- 64 0.190 0.388 0.522 0.198 0.300   0.34   1.18   7.50   0.80   0.10   0.70
 64-132 0.168 0.332 0.506 0.164 0.300   0.07   1.23   8.40   0.80   0.10   0.45
132-201 0.168 0.332 0.506 0.164 0.300   0.07   1.23   8.40   0.80   0.10   0.45

TOT-201  37.4  72.6 102.1  35.2  60.3  <--cm   -  kg/ha-->   19.6    2.5 182825
SOIL ALBEDO    : 0.13      EVAPORATION LIMIT : 6.00         MIN. FACTOR  : 1.00
RUNOFF CURVE # :61.00      DRAINAGE RATE     : 0.60         FERT. FACTOR : 1.00

 Maize      CULTIVAR :IB1066-PIO 3489           ECOTYPE :IB0001
 P1     : 225.00  P2     : 0.6000  P5     : 895.00
 G2     : 875.00  G3     :  8.800  PHINT  : 48.000


*SIMULATED CROP AND SOIL STATUS AT MAIN DEVELOPMENT STAGES

 RUN NO.     1     20 IRRIG, PETPEN NO KCB.

        CROP GROWTH     BIOMASS         LEAF   CROP N     STRESS      STRESS                                           
   DATE  AGE STAGE        kg/ha    LAI   NUM  kg/ha  %   H2O  Nitr Phos1 Phos2  RSTG                                   
 ------  --- ----------   -----  -----  ----  ---  ---  ----  ----  ----  ----  ----                                   
 15 APR    0 Start Sim        0   0.00   0.0    0  0.0  0.00  0.00  0.00  0.00     7
 30 MAY    0 Sowing           0   0.00   0.0    0  0.0  0.00  0.00  0.00  0.00     8
 31 MAY    1 Germinate        0   0.00   0.0    0  0.0  0.00  0.00  0.00  0.00     9
  4 JUN    5 Emergence       30   0.00   2.1    1  4.4  0.00  0.01  0.00  0.00     1
 16 JUN   17 End Juveni     155   0.32   7.5    5  3.3  0.00  0.00  0.00  0.00     2
 23 JUN   24 Floral Ini     483   0.84  10.1   17  3.6  0.00  0.00  0.00  0.00     3
 28 JUL   59 75% Silkin    3488   1.37  20.7   74  2.1  0.53  0.00  0.00  0.00     4
  8 AUG   70 Beg Gr Fil    5858   1.37  20.7   75  1.3  0.00  0.00  0.00  0.00     5
 27 SEP  120 End Gr Fil   13234   0.71  20.7  171  1.3  0.17  0.00  0.00  0.00     6
  3 OCT  126 Maturity     13234   0.71  20.7  171  1.3  0.00  0.00  0.00  0.00    10
  3 OCT  126 Harvest      13234   0.71  20.7  171  1.3  0.00  0.00  0.00  0.00    10


*MAIN GROWTH AND DEVELOPMENT VARIABLES

@     VARIABLE                                         SIMULATED     MEASURED
      --------                                         ---------     --------
      Anthesis day (dap)                                      59          -99
      Physiological maturity day (dap)                       126          -99
      Yield at harvest maturity (kg [dm]/ha)                8284          -99
      Number at maturity (no/m2)                            2539          -99
      Unit wt at maturity (g [dm]/unit)                   0.3263          -99
      Number at maturity (no/unit)                         334.1          -99
      Tops weight at maturity (kg [dm]/ha)                 13234          -99
      By-product produced (stalk) at maturity (kg[dm]/ha    4999          -99
      Leaf area index, maximum                              2.35          -99
      Harvest index at maturity                            0.626          -99
      Grain N at maturity (kg/ha)                            144          -99
      Tops N at maturity (kg/ha)                             171          -99
      Stem N at maturity (kg/ha)                              27          -99
      Grain N at maturity (%)                                1.7          -99
      Tops weight at anthesis (kg [dm]/ha)                  3381          -99
      Tops N at anthesis (kg/ha)                              74          -99
      Leaf number per stem at maturity                     20.73          -99
      Emergence day (dap)                                      5          -99


*ENVIRONMENTAL AND STRESS FACTORS

 |-----Development Phase------|--------------------------------------Environment--------------------------------------|-----------------Stress-----------------|
                              |---------------Average--------------|-----Cumulative-----|--------Count of days--------|          (0=Min, 1=Max Stress)         |
                         Time  Temp  Temp  Temp Solar Photop                Evapo    Pot TMIN TMIN TMAX TMAX TMAX RAIN|----Water----|---Nitrogen--|-Phosphorus-|
                         Span   Max   Min  Mean   Rad  [day]    CO2   Rain  Trans     ET   <    <    >    >    >    >   Photo         Photo         Photo
                         days    øC    øC    øC MJ/m2     hr    ppm     mm     mm     mm  0øC  2øC 30øC 32øC 34øC  0mm  synth Growth  synth Growth  synth Growth
----------------------------------------------------------------------------------------------------------------------------------------------------------------
 Emergence-End Juvenile    12  34.8  16.3  25.5  25.1  14.58  410.5   12.9   48.1  120.5    0    0   10   10    9    2  0.000  0.000  0.002  0.005  0.000  0.000
 End Juvenil-Floral Init    7  32.1  16.6  24.4  24.0  14.64  410.5    0.5   30.0   58.7    0    0    6    4    3    1  0.000  0.000  0.001  0.002  0.000  0.000
 Floral Init-End Lf Grow   35  34.0  18.4  26.2  24.2  14.43  410.5   63.7  123.8  252.8    0    0   31   27   18    6  0.487  0.534  0.000  0.000  0.000  0.000
 End Lf Grth-Beg Grn Fil   11  28.5  16.4  22.5  21.5  13.90  410.5   29.7   50.1   51.9    0    0    3    0    0    5  0.000  0.000  0.000  0.000  0.000  0.000
 Grain Filling Phase       50  30.0  13.3  21.6  19.4  12.75  410.5   76.8  181.4  244.2    0    1   31   22   11    6  0.126  0.165  0.000  0.000  0.000  0.000
   
 Planting to Harvest      126  31.5  15.2  23.3  22.0  13.61  410.5  183.6  456.9  807.5    0    1   86   68   46   20  0.185  0.214  0.000  0.001  0.000  0.000
----------------------------------------------------------------------------------------------------------------------------------------------------------------


*Resource Productivity
 Growing season length: 126 days 

 Precipitation during growing season       183.6 mm[rain]
   Dry Matter Productivity                  7.21 kg[DM]/m3[rain]          =   72.1 kg[DM]/ha per mm[rain]
   Yield Productivity                       4.51 kg[grain yield]/m3[rain] =   45.1 kg[yield]/ha per mm[rain]

 Evapotranspiration during growing season  456.9 mm[ET]
   Dry Matter Productivity                  2.90 kg[DM]/m3[ET]            =   29.0 kg[DM]/ha per mm[ET]
   Yield Productivity                       1.81 kg[grain yield]/m3[ET]   =   18.1 kg[yield]/ha per mm[ET]

 Transpiration during growing season       243.9 mm[EP]
   Dry Matter Productivity                  5.43 kg[DM]/m3[EP]            =   54.3 kg[DM]/ha per mm[EP]
   Yield Productivity                       3.40 kg[grain yield]/m3[EP]   =   34.0 kg[yield]/ha per mm[EP]

 Irrigation during growing season          279.4 mm[irrig]
   Dry Matter Productivity                  4.74 kg[DM]/m3[irrig]         =   47.4 kg[DM]/ha per mm[irrig]
   Yield Productivity                       2.96 kg[grain yield]/m3[irrig]=   29.6 kg[yield]/ha per mm[irrig]

 N applied during growing season            255. kg[N applied]/ha
   Dry Matter Productivity                  51.9 kg[DM]/kg[N applied]
   Yield Productivity                       32.5 kg[yield]/kg[N applied]

 N uptake during growing season              187 kg[N uptake]/ha
   Dry Matter Productivity                  70.8 kg[DM]/kg[N uptake]
   Yield Productivity                       44.3 kg[yield]/kg[N uptake]

--------------------------------------------------------------------------------------------------------------

                     Maize YIELD :     8284 kg/ha    [Dry weight] 

**************************************************************************************************************

*DSSAT Cropping System Model Ver. 4.7.5.035 -develop  JUN 14, 2021 14:17:00

*RUN   2        : 20 IRRIG, PETPEN KCB..... MZCER047 KSRT2001    2
 MODEL          : MZCER047 - Maize
 EXPERIMENT     : KSRT2001 SB ARM 2020 KS, IRRIGATED
 DATA PATH      :
 TREATMENT  2   : 20 IRRIG, PETPEN KCB..... MZCER047


 CROP           : Maize            CULTIVAR : PIO 3489         ECOTYPE :IB0001
 STARTING DATE  : APR 15 2020
 PLANTING DATE  : MAY 30 2020      PLANTS/m2 :     7.6    ROW SPACING :  76.cm
 WEATHER        : RT01   2020
 SOIL           : KSFC000004     TEXTURE : SIL   -   Richfield Silt Loam
 SOIL INITIAL C : DEPTH:201cm EXTR. H2O:351.5mm  NO3: 19.6kg/ha  NH4:  2.5kg/ha
 WATER BALANCE  : IRRIGATE ON REPORTED DATE(S)
 IRRIGATION     :      279 mm IN    11 APPLICATIONS
 NITROGEN BAL.  : SOIL-N & N-UPTAKE SIMULATION; NO N-FIXATION
 N-FERTILIZER   :      255 kg/ha IN     1 APPLICATIONS
 RESIDUE/MANURE : INITIAL :     0 kg/ha ;    1000 kg/ha IN     1 APPLICATIONS
 ENVIRONM. OPT. : DAYL=    0.00  SRAD=    0.00  TMAX=    0.00  TMIN=    0.00
                  RAIN=    0.00  CO2 =    0.00  DEW =    0.00  WIND=    0.00
 SIMULATION OPT : WATER   :Y  NITROGEN:Y  N-FIX:N  PHOSPH :N  PESTS  :N
                  PHOTO   :C  ET      :F  INFIL:S  HYDROL :R  SOM    :G
                  CO2 410ppm  NSWIT   :1  EVAP :S  SOIL   :2  STEMP  :D
 MANAGEMENT OPT : PLANTING:R  IRRIG   :R  FERT :R  RESIDUE:N  HARVEST:M
                  WEATHER :M  TILLAGE :Y

*SUMMARY OF SOIL AND GENETIC INPUT PARAMETERS

   SOIL LOWER UPPER   SAT  EXTR  INIT   ROOT   BULK     pH    NO3    NH4    ORG
  DEPTH LIMIT LIMIT    SW    SW    SW   DIST   DENS                          C
   cm   cm3/cm3    cm3/cm3    cm3/cm3         g/cm3         ugN/g  ugN/g     %
-------------------------------------------------------------------------------
  0-  5 0.202 0.414 0.488 0.212 0.300   1.00   1.25   7.20   0.80   0.10   2.05
  5- 15 0.202 0.414 0.488 0.212 0.300   1.00   1.25   7.20   0.80   0.10   2.05
 15- 29 0.263 0.454 0.517 0.191 0.300   0.56   1.18   7.50   0.80   0.10   1.55
 29- 43 0.263 0.454 0.517 0.191 0.300   0.56   1.18   7.50   0.80   0.10   1.55
 43- 53 0.190 0.388 0.522 0.198 0.300   0.34   1.18   7.50   0.80   0.10   0.70
 53- 64 0.190 0.388 0.522 0.198 0.300   0.34   1.18   7.50   0.80   0.10   0.70
 64-132 0.168 0.332 0.506 0.164 0.300   0.07   1.23   8.40   0.80   0.10   0.45
132-201 0.168 0.332 0.506 0.164 0.300   0.07   1.23   8.40   0.80   0.10   0.45

TOT-201  37.4  72.6 102.1  35.2  60.3  <--cm   -  kg/ha-->   19.6    2.5 182825
SOIL ALBEDO    : 0.13      EVAPORATION LIMIT : 6.00         MIN. FACTOR  : 1.00
RUNOFF CURVE # :61.00      DRAINAGE RATE     : 0.60         FERT. FACTOR : 1.00

 Maize      CULTIVAR :IB1066-PIO 3489           ECOTYPE :IB0001
 P1     : 225.00  P2     : 0.6000  P5     : 895.00
 G2     : 875.00  G3     :  8.800  PHINT  : 48.000


*SIMULATED CROP AND SOIL STATUS AT MAIN DEVELOPMENT STAGES

 RUN NO.     2     20 IRRIG, PETPEN KCB....

        CROP GROWTH     BIOMASS         LEAF   CROP N     STRESS      STRESS                                           
   DATE  AGE STAGE        kg/ha    LAI   NUM  kg/ha  %   H2O  Nitr Phos1 Phos2  RSTG                                   
 ------  --- ----------   -----  -----  ----  ---  ---  ----  ----  ----  ----  ----                                   
 15 APR    0 Start Sim        0   0.00   0.0    0  0.0  0.00  0.00  0.00  0.00     7
 30 MAY    0 Sowing           0   0.00   0.0    0  0.0  0.00  0.00  0.00  0.00     8
 31 MAY    1 Germinate        0   0.00   0.0    0  0.0  0.00  0.00  0.00  0.00     9
  4 JUN    5 Emergence       30   0.00   2.1    1  4.4  0.00  0.01  0.00  0.00     1
 16 JUN   17 End Juveni      36   0.06   7.5    1  3.7  0.76  0.00  0.00  0.00     2
 23 JUN   24 Floral Ini     119   0.23  10.1    4  3.7  0.62  0.00  0.00  0.00     3
 28 JUL   59 75% Silkin    5164   2.41  20.7  109  2.1  0.37  0.00  0.00  0.00     4
  8 AUG   70 Beg Gr Fil    8439   2.41  20.7  109  1.3  0.00  0.00  0.00  0.00     5
 27 SEP  120 End Gr Fil   19135   1.27  20.7  248  1.3  0.18  0.00  0.00  0.00     6
  3 OCT  126 Maturity     19135   1.27  20.7  248  1.3  0.00  0.00  0.00  0.00    10
  3 OCT  126 Harvest      19135   1.27  20.7  248  1.3  0.00  0.00  0.00  0.00    10


*MAIN GROWTH AND DEVELOPMENT VARIABLES

@     VARIABLE                                         SIMULATED     MEASURED
      --------                                         ---------     --------
      Anthesis day (dap)                                      59          -99
      Physiological maturity day (dap)                       126          -99
      Yield at harvest maturity (kg [dm]/ha)               11997          -99
      Number at maturity (no/m2)                            3318          -99
      Unit wt at maturity (g [dm]/unit)                   0.3615          -99
      Number at maturity (no/unit)                         436.6          -99
      Tops weight at maturity (kg [dm]/ha)                 19135          -99
      By-product produced (stalk) at maturity (kg[dm]/ha    7192          -99
      Leaf area index, maximum                              3.04          -99
      Harvest index at maturity                            0.627          -99
      Grain N at maturity (kg/ha)                            208          -99
      Tops N at maturity (kg/ha)                             248          -99
      Stem N at maturity (kg/ha)                              39          -99
      Grain N at maturity (%)                                1.7          -99
      Tops weight at anthesis (kg [dm]/ha)                  5013          -99
      Tops N at anthesis (kg/ha)                             109          -99
      Leaf number per stem at maturity                     20.73          -99
      Emergence day (dap)                                      5          -99


*ENVIRONMENTAL AND STRESS FACTORS

 |-----Development Phase------|--------------------------------------Environment--------------------------------------|-----------------Stress-----------------|
                              |---------------Average--------------|-----Cumulative-----|--------Count of days--------|          (0=Min, 1=Max Stress)         |
                         Time  Temp  Temp  Temp Solar Photop                Evapo    Pot TMIN TMIN TMAX TMAX TMAX RAIN|----Water----|---Nitrogen--|-Phosphorus-|
                         Span   Max   Min  Mean   Rad  [day]    CO2   Rain  Trans     ET   <    <    >    >    >    >   Photo         Photo         Photo
                         days    øC    øC    øC MJ/m2     hr    ppm     mm     mm     mm  0øC  2øC 30øC 32øC 34øC  0mm  synth Growth  synth Growth  synth Growth
----------------------------------------------------------------------------------------------------------------------------------------------------------------
 Emergence-End Juvenile    12  34.8  16.3  25.5  25.1  14.58  410.5   12.9   43.1   37.1    0    0   10   10    9    2  0.584  0.695  0.002  0.005  0.000  0.000
 End Juvenil-Floral Init    7  32.1  16.6  24.4  24.0  14.64  410.5    0.5   25.6   24.8    0    0    6    4    3    1  0.512  0.675  0.000  0.000  0.000  0.000
 Floral Init-End Lf Grow   35  34.0  18.4  26.2  24.2  14.43  410.5   63.7  181.3  196.1    0    0   31   27   18    6  0.250  0.378  0.000  0.000  0.000  0.000
 End Lf Grth-Beg Grn Fil   11  28.5  16.4  22.5  21.5  13.90  410.5   29.7   54.5   45.8    0    0    3    0    0    5  0.000  0.000  0.000  0.000  0.000  0.000
 Grain Filling Phase       50  30.0  13.3  21.6  19.4  12.75  410.5   76.8  115.8  118.8    0    1   31   22   11    6  0.123  0.176  0.000  0.000  0.000  0.000
   
 Planting to Harvest      126  31.5  15.2  23.3  22.0  13.61  410.5  183.6  420.3  422.6    0    1   86   68   46   20  0.202  0.279  0.000  0.000  0.000  0.000
----------------------------------------------------------------------------------------------------------------------------------------------------------------


*Resource Productivity
 Growing season length: 126 days 

 Precipitation during growing season       183.6 mm[rain]
   Dry Matter Productivity                 10.42 kg[DM]/m3[rain]          =  104.2 kg[DM]/ha per mm[rain]
   Yield Productivity                       6.53 kg[grain yield]/m3[rain] =   65.3 kg[yield]/ha per mm[rain]

 Evapotranspiration during growing season  420.3 mm[ET]
   Dry Matter Productivity                  4.55 kg[DM]/m3[ET]            =   45.5 kg[DM]/ha per mm[ET]
   Yield Productivity                       2.85 kg[grain yield]/m3[ET]   =   28.5 kg[yield]/ha per mm[ET]

 Transpiration during growing season       298.8 mm[EP]
   Dry Matter Productivity                  6.40 kg[DM]/m3[EP]            =   64.0 kg[DM]/ha per mm[EP]
   Yield Productivity                       4.01 kg[grain yield]/m3[EP]   =   40.1 kg[yield]/ha per mm[EP]

 Irrigation during growing season          279.4 mm[irrig]
   Dry Matter Productivity                  6.85 kg[DM]/m3[irrig]         =   68.5 kg[DM]/ha per mm[irrig]
   Yield Productivity                       4.29 kg[grain yield]/m3[irrig]=   42.9 kg[yield]/ha per mm[irrig]

 N applied during growing season            255. kg[N applied]/ha
   Dry Matter Productivity                  75.0 kg[DM]/kg[N applied]
   Yield Productivity                       47.0 kg[yield]/kg[N applied]

 N uptake during growing season              263 kg[N uptake]/ha
   Dry Matter Productivity                  72.8 kg[DM]/kg[N uptake]
   Yield Productivity                       45.6 kg[yield]/kg[N uptake]

--------------------------------------------------------------------------------------------------------------

                     Maize YIELD :    11997 kg/ha    [Dry weight] 

**************************************************************************************************************

*DSSAT Cropping System Model Ver. 4.7.5.035 -develop  JUN 14, 2021 14:17:00

*RUN   3        : 20 IRRIG, ASCE SHORT..... MZCER047 KSRT2001    3
 MODEL          : MZCER047 - Maize
 EXPERIMENT     : KSRT2001 SB ARM 2020 KS, IRRIGATED
 DATA PATH      :
 TREATMENT  3   : 20 IRRIG, ASCE SHORT..... MZCER047


 CROP           : Maize            CULTIVAR : PIO 3489         ECOTYPE :IB0001
 STARTING DATE  : APR 15 2020
 PLANTING DATE  : MAY 30 2020      PLANTS/m2 :     7.6    ROW SPACING :  76.cm
 WEATHER        : RT01   2020
 SOIL           : KSFC000004     TEXTURE : SIL   -   Richfield Silt Loam
 SOIL INITIAL C : DEPTH:201cm EXTR. H2O:351.5mm  NO3: 19.6kg/ha  NH4:  2.5kg/ha
 WATER BALANCE  : IRRIGATE ON REPORTED DATE(S)
 IRRIGATION     :      279 mm IN    11 APPLICATIONS
 NITROGEN BAL.  : SOIL-N & N-UPTAKE SIMULATION; NO N-FIXATION
 N-FERTILIZER   :      255 kg/ha IN     1 APPLICATIONS
 RESIDUE/MANURE : INITIAL :     0 kg/ha ;    1000 kg/ha IN     1 APPLICATIONS
 ENVIRONM. OPT. : DAYL=    0.00  SRAD=    0.00  TMAX=    0.00  TMIN=    0.00
                  RAIN=    0.00  CO2 =    0.00  DEW =    0.00  WIND=    0.00
 SIMULATION OPT : WATER   :Y  NITROGEN:Y  N-FIX:N  PHOSPH :N  PESTS  :N
                  PHOTO   :C  ET      :S  INFIL:S  HYDROL :R  SOM    :G
                  CO2 410ppm  NSWIT   :1  EVAP :S  SOIL   :2  STEMP  :D
 MANAGEMENT OPT : PLANTING:R  IRRIG   :R  FERT :R  RESIDUE:N  HARVEST:M
                  WEATHER :M  TILLAGE :Y

*SUMMARY OF SOIL AND GENETIC INPUT PARAMETERS

   SOIL LOWER UPPER   SAT  EXTR  INIT   ROOT   BULK     pH    NO3    NH4    ORG
  DEPTH LIMIT LIMIT    SW    SW    SW   DIST   DENS                          C
   cm   cm3/cm3    cm3/cm3    cm3/cm3         g/cm3         ugN/g  ugN/g     %
-------------------------------------------------------------------------------
  0-  5 0.202 0.414 0.488 0.212 0.300   1.00   1.25   7.20   0.80   0.10   2.05
  5- 15 0.202 0.414 0.488 0.212 0.300   1.00   1.25   7.20   0.80   0.10   2.05
 15- 29 0.263 0.454 0.517 0.191 0.300   0.56   1.18   7.50   0.80   0.10   1.55
 29- 43 0.263 0.454 0.517 0.191 0.300   0.56   1.18   7.50   0.80   0.10   1.55
 43- 53 0.190 0.388 0.522 0.198 0.300   0.34   1.18   7.50   0.80   0.10   0.70
 53- 64 0.190 0.388 0.522 0.198 0.300   0.34   1.18   7.50   0.80   0.10   0.70
 64-132 0.168 0.332 0.506 0.164 0.300   0.07   1.23   8.40   0.80   0.10   0.45
132-201 0.168 0.332 0.506 0.164 0.300   0.07   1.23   8.40   0.80   0.10   0.45

TOT-201  37.4  72.6 102.1  35.2  60.3  <--cm   -  kg/ha-->   19.6    2.5 182825
SOIL ALBEDO    : 0.13      EVAPORATION LIMIT : 6.00         MIN. FACTOR  : 1.00
RUNOFF CURVE # :61.00      DRAINAGE RATE     : 0.60         FERT. FACTOR : 1.00

 Maize      CULTIVAR :IB1066-PIO 3489           ECOTYPE :IB0001
 P1     : 225.00  P2     : 0.6000  P5     : 895.00
 G2     : 875.00  G3     :  8.800  PHINT  : 48.000


*SIMULATED CROP AND SOIL STATUS AT MAIN DEVELOPMENT STAGES

 RUN NO.     3     20 IRRIG, ASCE SHORT....

        CROP GROWTH     BIOMASS         LEAF   CROP N     STRESS      STRESS                                           
   DATE  AGE STAGE        kg/ha    LAI   NUM  kg/ha  %   H2O  Nitr Phos1 Phos2  RSTG                                   
 ------  --- ----------   -----  -----  ----  ---  ---  ----  ----  ----  ----  ----                                   
 15 APR    0 Start Sim        0   0.00   0.0    0  0.0  0.00  0.00  0.00  0.00     7
 30 MAY    0 Sowing           0   0.00   0.0    0  0.0  0.00  0.00  0.00  0.00     8
 31 MAY    1 Germinate        0   0.00   0.0    0  0.0  0.00  0.00  0.00  0.00     9
  4 JUN    5 Emergence       30   0.00   2.1    1  4.4  0.00  0.01  0.00  0.00     1
 16 JUN   17 End Juveni     155   0.32   7.5    5  3.3  0.00  0.00  0.00  0.00     2
 23 JUN   24 Floral Ini     483   0.84  10.1   17  3.6  0.00  0.00  0.00  0.00     3
 28 JUL   59 75% Silkin    2747   1.02  20.7   61  2.2  0.61  0.00  0.00  0.00     4
  8 AUG   70 Beg Gr Fil    4685   1.02  20.7   61  1.3  0.00  0.00  0.00  0.00     5
 27 SEP  120 End Gr Fil    9922   0.49  20.7  125  1.3  0.19  0.00  0.00  0.00     6
  3 OCT  126 Maturity      9922   0.49  20.7  125  1.3  0.00  0.00  0.00  0.00    10
  3 OCT  126 Harvest       9922   0.49  20.7  125  1.3  0.00  0.00  0.00  0.00    10


*MAIN GROWTH AND DEVELOPMENT VARIABLES

@     VARIABLE                                         SIMULATED     MEASURED
      --------                                         ---------     --------
      Anthesis day (dap)                                      59          -99
      Physiological maturity day (dap)                       126          -99
      Yield at harvest maturity (kg [dm]/ha)                5980          -99
      Number at maturity (no/m2)                            2150          -99
      Unit wt at maturity (g [dm]/unit)                   0.2782          -99
      Number at maturity (no/unit)                         282.9          -99
      Tops weight at maturity (kg [dm]/ha)                  9922          -99
      By-product produced (stalk) at maturity (kg[dm]/ha    3984          -99
      Leaf area index, maximum                              1.99          -99
      Harvest index at maturity                            0.603          -99
      Grain N at maturity (kg/ha)                            104          -99
      Tops N at maturity (kg/ha)                             125          -99
      Stem N at maturity (kg/ha)                              21          -99
      Grain N at maturity (%)                                1.7          -99
      Tops weight at anthesis (kg [dm]/ha)                  2660          -99
      Tops N at anthesis (kg/ha)                              61          -99
      Leaf number per stem at maturity                     20.73          -99
      Emergence day (dap)                                      5          -99


*ENVIRONMENTAL AND STRESS FACTORS

 |-----Development Phase------|--------------------------------------Environment--------------------------------------|-----------------Stress-----------------|
                              |---------------Average--------------|-----Cumulative-----|--------Count of days--------|          (0=Min, 1=Max Stress)         |
                         Time  Temp  Temp  Temp Solar Photop                Evapo    Pot TMIN TMIN TMAX TMAX TMAX RAIN|----Water----|---Nitrogen--|-Phosphorus-|
                         Span   Max   Min  Mean   Rad  [day]    CO2   Rain  Trans     ET   <    <    >    >    >    >   Photo         Photo         Photo
                         days    øC    øC    øC MJ/m2     hr    ppm     mm     mm     mm  0øC  2øC 30øC 32øC 34øC  0mm  synth Growth  synth Growth  synth Growth
----------------------------------------------------------------------------------------------------------------------------------------------------------------
 Emergence-End Juvenile    12  34.8  16.3  25.5  25.1  14.58  410.5   12.9   50.0  148.6    0    0   10   10    9    2  0.000  0.000  0.002  0.005  0.000  0.000
 End Juvenil-Floral Init    7  32.1  16.6  24.4  24.0  14.64  410.5    0.5   32.2   73.8    0    0    6    4    3    1  0.000  0.000  0.001  0.002  0.000  0.000
 Floral Init-End Lf Grow   35  34.0  18.4  26.2  24.2  14.43  410.5   63.7  116.4  317.4    0    0   31   27   18    6  0.568  0.608  0.000  0.000  0.000  0.000
 End Lf Grth-Beg Grn Fil   11  28.5  16.4  22.5  21.5  13.90  410.5   29.7   49.9   61.6    0    0    3    0    0    5  0.000  0.000  0.000  0.000  0.000  0.000
 Grain Filling Phase       50  30.0  13.3  21.6  19.4  12.75  410.5   76.8  175.1  299.4    0    1   31   22   11    6  0.160  0.191  0.000  0.000  0.000  0.000
   
 Planting to Harvest      126  31.5  15.2  23.3  22.0  13.61  410.5  183.6  445.6  998.0    0    1   86   68   46   20  0.221  0.245  0.000  0.001  0.000  0.000
----------------------------------------------------------------------------------------------------------------------------------------------------------------


*Resource Productivity
 Growing season length: 126 days 

 Precipitation during growing season       183.6 mm[rain]
   Dry Matter Productivity                  5.40 kg[DM]/m3[rain]          =   54.0 kg[DM]/ha per mm[rain]
   Yield Productivity                       3.26 kg[grain yield]/m3[rain] =   32.6 kg[yield]/ha per mm[rain]

 Evapotranspiration during growing season  445.6 mm[ET]
   Dry Matter Productivity                  2.23 kg[DM]/m3[ET]            =   22.3 kg[DM]/ha per mm[ET]
   Yield Productivity                       1.34 kg[grain yield]/m3[ET]   =   13.4 kg[yield]/ha per mm[ET]

 Transpiration during growing season       218.3 mm[EP]
   Dry Matter Productivity                  4.55 kg[DM]/m3[EP]            =   45.5 kg[DM]/ha per mm[EP]
   Yield Productivity                       2.74 kg[grain yield]/m3[EP]   =   27.4 kg[yield]/ha per mm[EP]

 Irrigation during growing season          279.4 mm[irrig]
   Dry Matter Productivity                  3.55 kg[DM]/m3[irrig]         =   35.5 kg[DM]/ha per mm[irrig]
   Yield Productivity                       2.14 kg[grain yield]/m3[irrig]=   21.4 kg[yield]/ha per mm[irrig]

 N applied during growing season            255. kg[N applied]/ha
   Dry Matter Productivity                  38.9 kg[DM]/kg[N applied]
   Yield Productivity                       23.5 kg[yield]/kg[N applied]

 N uptake during growing season              138 kg[N uptake]/ha
   Dry Matter Productivity                  71.9 kg[DM]/kg[N uptake]
   Yield Productivity                       43.3 kg[yield]/kg[N uptake]

--------------------------------------------------------------------------------------------------------------

                     Maize YIELD :     5980 kg/ha    [Dry weight] 

**************************************************************************************************************
