*SIMULATION OVERVIEW FILE

*DSSAT Cropping System Model Ver. 4.7.5.035 -develop  JUN 10, 2021 14:49:00

*RUN   1        : 20 IRRIG, light rate,freq MZCER047 KSRT2001    1
 MODEL          : MZCER047 - Maize
 EXPERIMENT     : KSRT2001 SB ARM 2020 KS, IRRIGATED & NON-IRRIGATED
 DATA PATH      :
 TREATMENT  1   : 20 IRRIG, light rate,freq MZCER047


 CROP           : Maize            CULTIVAR : PIO 3489         ECOTYPE :IB0001
 STARTING DATE  : MAY  9 2020
 PLANTING DATE  : MAY 30 2020      PLANTS/m2 :     7.6    ROW SPACING :  76.cm
 WEATHER        : RT01   2020
 SOIL           : KSFC000004     TEXTURE : SIL   -   Richfield Silt Loam
 SOIL INITIAL C : DEPTH:201cm EXTR. H2O:351.5mm  NO3: 19.6kg/ha  NH4:  2.5kg/ha
 WATER BALANCE  : AUTOMATIC IRRIGATION - REFILL PROFILE
 IRRIGATION     : AUTOMATIC [SOIL DEPTH: 1.20 m 70.%]
 NITROGEN BAL.  : SOIL-N & N-UPTAKE SIMULATION; NO N-FIXATION
 N-FERTILIZER   :        0 kg/ha IN     0 APPLICATIONS
 RESIDUE/MANURE : INITIAL :     0 kg/ha ;    1000 kg/ha IN     1 APPLICATIONS
 ENVIRONM. OPT. : DAYL=    0.00  SRAD=    0.00  TMAX=    0.00  TMIN=    0.00
                  RAIN=    0.00  CO2 =    0.00  DEW =    0.00  WIND=    0.00
 SIMULATION OPT : WATER   :Y  NITROGEN:Y  N-FIX:N  PHOSPH :N  PESTS  :N
                  PHOTO   :C  ET      :F  INFIL:S  HYDROL :R  SOM    :G
                  CO2 410ppm  NSWIT   :1  EVAP :S  SOIL   :2  STEMP  :D
 MANAGEMENT OPT : PLANTING:R  IRRIG   :A  FERT :R  RESIDUE:R  HARVEST:M
                  WEATHER :M  TILLAGE :Y

*SUMMARY OF SOIL AND GENETIC INPUT PARAMETERS

   SOIL LOWER UPPER   SAT  EXTR  INIT   ROOT   BULK     pH    NO3    NH4    ORG
  DEPTH LIMIT LIMIT    SW    SW    SW   DIST   DENS                          C
   cm   cm3/cm3    cm3/cm3    cm3/cm3         g/cm3         ugN/g  ugN/g     %
-------------------------------------------------------------------------------
  0-  5 0.202 0.414 0.488 0.212 0.300   1.00   1.25   7.20   0.80   0.10   2.05
  5- 15 0.202 0.414 0.488 0.212 0.300   1.00   1.25   7.20   0.80   0.10   2.05
 15- 29 0.263 0.454 0.517 0.191 0.300   0.56   1.18   7.50   0.80   0.10   1.55
 29- 43 0.263 0.454 0.517 0.191 0.300   0.56   1.18   7.50   0.80   0.10   1.55
 43- 53 0.190 0.388 0.522 0.198 0.300   0.34   1.18   7.50   0.80   0.10   0.70
 53- 64 0.190 0.388 0.522 0.198 0.300   0.34   1.18   7.50   0.80   0.10   0.70
 64-132 0.168 0.332 0.506 0.164 0.300   0.07   1.23   8.40   0.80   0.10   0.45
132-201 0.168 0.332 0.506 0.164 0.300   0.07   1.23   8.40   0.80   0.10   0.45

TOT-201  37.4  72.6 102.1  35.2  60.3  <--cm   -  kg/ha-->   19.6    2.5 182825
SOIL ALBEDO    : 0.13      EVAPORATION LIMIT : 6.00         MIN. FACTOR  : 1.00
RUNOFF CURVE # :61.00      DRAINAGE RATE     : 0.60         FERT. FACTOR : 1.00

 Maize      CULTIVAR :IB1066-PIO 3489           ECOTYPE :IB0001
 P1     : 225.00  P2     : 0.6000  P5     : 895.00
 G2     : 875.00  G3     :  8.800  PHINT  : 48.000


*SIMULATED CROP AND SOIL STATUS AT MAIN DEVELOPMENT STAGES

 RUN NO.     1     20 IRRIG, light rate,fre

        CROP GROWTH     BIOMASS         LEAF   CROP N     STRESS      STRESS                                           
   DATE  AGE STAGE        kg/ha    LAI   NUM  kg/ha  %   H2O  Nitr Phos1 Phos2  RSTG                                   
 ------  --- ----------   -----  -----  ----  ---  ---  ----  ----  ----  ----  ----                                   
  9 MAY    0 Start Sim        0   0.00   0.0    0  0.0  0.00  0.00  0.00  0.00     7
 30 MAY    0 Sowing           0   0.00   0.0    0  0.0  0.00  0.00  0.00  0.00     8
 31 MAY    1 Germinate        0   0.00   0.0    0  0.0  0.00  0.00  0.00  0.00     9
  4 JUN    5 Emergence       30   0.00   2.1    1  4.4  0.00  0.01  0.00  0.00     1
 16 JUN   17 End Juveni     155   0.32   7.5    5  3.3  0.00  0.00  0.00  0.00     2
 23 JUN   24 Floral Ini     483   0.84  10.1   17  3.6  0.00  0.00  0.00  0.00     3
 28 JUL   59 75% Silkin    5321   1.98  20.7   57  1.1  0.00  0.45  0.00  0.00     4
  8 AUG   70 Beg Gr Fil    7360   1.49  20.7   66  0.9  0.00  0.51  0.00  0.00     5
 27 SEP  120 End Gr Fil   12802   0.33  20.7  106  0.8  0.00  0.50  0.00  0.00     6
  3 OCT  126 Maturity     12802   0.33  20.7  106  0.8  0.00  0.47  0.00  0.00    10
  3 OCT  126 Harvest      12802   0.33  20.7  106  0.8  0.00  0.00  0.00  0.00    10


*MAIN GROWTH AND DEVELOPMENT VARIABLES

@     VARIABLE                                         SIMULATED     MEASURED
      --------                                         ---------     --------
      Anthesis day (dap)                                      59          -99
      Physiological maturity day (dap)                       126          -99
      Yield at harvest maturity (kg [dm]/ha)                7239          -99
      Number at maturity (no/m2)                            1704          -99
      Unit wt at maturity (g [dm]/unit)                   0.4249          -99
      Number at maturity (no/unit)                         224.2          -99
      Tops weight at maturity (kg [dm]/ha)                 12802          -99
      By-product produced (stalk) at maturity (kg[dm]/ha    5623          -99
      Leaf area index, maximum                              2.42          -99
      Harvest index at maturity                            0.565          -99
      Grain N at maturity (kg/ha)                             76          -99
      Tops N at maturity (kg/ha)                             106          -99
      Stem N at maturity (kg/ha)                              29          -99
      Grain N at maturity (%)                                1.1          -99
      Tops weight at anthesis (kg [dm]/ha)                  5227          -99
      Tops N at anthesis (kg/ha)                              57          -99
      Leaf number per stem at maturity                     20.73          -99
      Emergence day (dap)                                      5          -99


*ENVIRONMENTAL AND STRESS FACTORS

 |-----Development Phase------|--------------------------------------Environment--------------------------------------|-----------------Stress-----------------|
                              |---------------Average--------------|-----Cumulative-----|--------Count of days--------|          (0=Min, 1=Max Stress)         |
                         Time  Temp  Temp  Temp Solar Photop                Evapo    Pot TMIN TMIN TMAX TMAX TMAX RAIN|----Water----|---Nitrogen--|-Phosphorus-|
                         Span   Max   Min  Mean   Rad  [day]    CO2   Rain  Trans     ET   <    <    >    >    >    >   Photo         Photo         Photo
                         days    øC    øC    øC MJ/m2     hr    ppm     mm     mm     mm  0øC  2øC 30øC 32øC 34øC  0mm  synth Growth  synth Growth  synth Growth
----------------------------------------------------------------------------------------------------------------------------------------------------------------
 Emergence-End Juvenile    12  34.8  16.3  25.5  25.1  14.58  410.5   12.9   19.0  120.5    0    0   10   10    9    2  0.000  0.000  0.002  0.005  0.000  0.000
 End Juvenil-Floral Init    7  32.1  16.6  24.4  24.0  14.64  410.5    0.5    7.4   58.7    0    0    6    4    3    1  0.000  0.000  0.001  0.002  0.000  0.000
 Floral Init-End Lf Grow   35  34.0  18.4  26.2  24.2  14.43  410.5   63.7   26.4  252.8    0    0   31   27   18    6  0.000  0.000  0.206  0.430  0.000  0.000
 End Lf Grth-Beg Grn Fil   11  28.5  16.4  22.5  21.5  13.90  410.5   29.7   15.4   51.9    0    0    3    0    0    5  0.000  0.000  0.219  0.515  0.000  0.000
 Grain Filling Phase       50  30.0  13.3  21.6  19.4  12.75  410.5   76.8   83.6  244.2    0    1   31   22   11    6  0.000  0.000  0.206  0.499  0.000  0.000
   
 Planting to Harvest      126  31.5  15.2  23.3  22.0  13.61  410.5  183.6  182.9  807.8    0    1   86   68   46   20  0.000  0.000  0.167  0.385  0.000  0.000
----------------------------------------------------------------------------------------------------------------------------------------------------------------


*Resource Productivity
 Growing season length: 126 days 

 Precipitation during growing season       183.6 mm[rain]
   Dry Matter Productivity                  6.97 kg[DM]/m3[rain]          =   69.7 kg[DM]/ha per mm[rain]
   Yield Productivity                       3.94 kg[grain yield]/m3[rain] =   39.4 kg[yield]/ha per mm[rain]

 Evapotranspiration during growing season  182.9 mm[ET]
   Dry Matter Productivity                  7.00 kg[DM]/m3[ET]            =   70.0 kg[DM]/ha per mm[ET]
   Yield Productivity                       3.96 kg[grain yield]/m3[ET]   =   39.6 kg[yield]/ha per mm[ET]

 Transpiration during growing season         0.0 mm[EP]
   Dry Matter Productivity                 -9.90 kg[DM]/m3[EP]            =  -99.0 kg[DM]/ha per mm[EP]
   Yield Productivity                      -9.90 kg[grain yield]/m3[EP]   =  -99.0 kg[yield]/ha per mm[EP]

 Irrigation during growing season           94.9 mm[irrig]
   Dry Matter Productivity                 13.49 kg[DM]/m3[irrig]         =  134.9 kg[DM]/ha per mm[irrig]
   Yield Productivity                       7.63 kg[grain yield]/m3[irrig]=   76.3 kg[yield]/ha per mm[irrig]

 N uptake during growing season              134 kg[N uptake]/ha
   Dry Matter Productivity                  95.5 kg[DM]/kg[N uptake]
   Yield Productivity                       54.0 kg[yield]/kg[N uptake]

--------------------------------------------------------------------------------------------------------------

                     Maize YIELD :     7239 kg/ha    [Dry weight] 

**************************************************************************************************************
