*GROWTH ASPECTS OUTPUT FILE

*DSSAT Cropping System Model Ver. 4.7.5.035 -develop  JUN 11, 2021 16:21:59

*RUN   1        : 20 IRRIG, PETPEN NO KCB.. MZCER047 KSRT2001    1
 MODEL          : MZCER047 - Maize
 EXPERIMENT     : KSRT2001 SB ARM 2020 KS, IRRIGATED & NON-IRRIGATED
 DATA PATH      :
 TREATMENT  1   : 20 IRRIG, PETPEN NO KCB.. MZCER047
  
!                                                                                                                                                                                                                                      Root Dens. (cm/cm3) by soil depth (cm):
!                                                                                                                                                                                                                                      0-5    5-15   15-29   29-43   43-53   53-64  64-132 132-201
@YEAR DOY   DAS   DAP   L#SD   GSTD   LAID   LWAD   SWAD   GWAD   RWAD   VWAD   CWAD   G#AD   GWGD   HIAD   PWAD   P#AD   WSPD   WSGD   NSTD   EWSD  PST1A  PST2A   KSTD   LN%D   SH%D   HIPD   PWDD   PWTD     SLAD   CHTD   CWID   RDPD    RL1D    RL2D    RL3D    RL4D    RL5D    RL6D    RL7D    RL8D   CDAD   LDAD   SDAD   SNW0C   SNW1C  DTTD
 2020 151    46     0    0.0      0   0.00      0      0      0      0      0      0      0    0.0  0.000      0      0  0.000  0.000  0.000  0.000  0.000  0.000  0.000   0.00   0.00   0.00      0      0      0.0   0.00   0.00   0.05    0.00    0.00    0.00    0.00    0.00    0.00    0.00    0.00      0      0      0       0       0 20.06
 2020 152    47     1    0.0      0   0.00      0      0      0      0      0      0      0    0.0  0.000      0      0  0.000  0.000  0.000  0.000  0.000  0.000  0.000   0.00   0.00   0.00      0      0      0.0   0.00   0.00   0.08    0.00    0.00    0.00    0.00    0.00    0.00    0.00    0.00      0      0      0       0       0 20.09
 2020 153    48     2    0.0      0   0.00      0      0      0      0      0      0      0    0.0  0.000      0      0  0.000  0.000  0.000  0.000  0.000  0.000  0.000   0.00   0.00   0.00      0      0      0.0   0.00   0.00   0.11    0.00    0.00    0.00    0.00    0.00    0.00    0.00    0.00      0      0      0       0       0 20.05
 2020 154    49     3    0.0      0   0.00      0      0      0      0      0      0      0    0.0  0.000      0      0  0.000  0.000  0.000  0.000  0.000  0.000  0.000   0.00   0.00   0.00      0      0      0.0   0.00   0.00   0.14    0.00    0.00    0.00    0.00    0.00    0.00    0.00    0.00      0      0      0       0       0 21.04
 2020 155    50     4    0.0      0   0.00      0      0      0      0      0      0      0    0.0  0.000      0      0  0.000  0.000  0.000  0.000  0.000  0.000  0.000   0.00   0.00   0.00      0      0      0.0   0.00   0.00   0.17    0.00    0.00    0.00    0.00    0.00    0.00    0.00    0.00      0      0      0       0       0 20.80
 2020 156    51     5    2.0      1   0.00     15     15      0     15     30     30      0    0.0  0.000      0      0  0.000  0.000  0.012  0.000  0.000  0.000  0.000   4.40   0.00   0.00      0      0     30.6   0.00   0.00   0.18    0.30    0.15    0.02    0.00    0.00    0.00    0.00    0.00      0      0      0       0       0 20.17
 2020 157    52     6    2.0      1   0.01     15     15      0     16     30     30      0    0.0  0.000      0      0  0.000  0.000  0.010  0.000  0.000  0.000  0.000   4.40   0.00   0.00      0      0     64.0   0.00   0.00   0.20    0.30    0.17    0.02    0.00    0.00    0.00    0.00    0.00      0      0      0       0       0 21.65
 2020 158    53     7    3.0      1   0.02     15     15      0     18     30     30      0    0.0  0.000      0      0  0.000  0.000  0.001  0.000  0.000  0.000  0.000   4.40   0.00   0.00      0      0    102.8   0.01   0.00   0.21    0.30    0.19    0.02    0.00    0.00    0.00    0.00    0.00      0      0      0       0       0 21.85
 2020 159    54     8    3.0      1   0.02     15     15      0     20     30     30      0    0.0  0.000      0      0  0.000  0.000  0.000  0.000  0.000  0.000  0.000   4.40   0.00   0.00      0      0    147.5   0.01   0.00   0.22    0.30    0.23    0.03    0.00    0.00    0.00    0.00    0.00      0      0      0       0       0 22.57
 2020 160    55     9    4.0      1   0.05     15     15      0     24     30     30      0    0.0  0.000      0      0  0.000  0.000  0.000  0.000  0.000  0.000  0.000   4.40   0.00   0.00      0      0    307.6   0.02   0.00   0.23    0.29    0.28    0.04    0.00    0.00    0.00    0.00    0.00      0      0      0       0       0 22.32
 2020 161    56    10    4.0      1   0.06     17     15      0     25     32     32      0    0.0  0.000      0      0  0.000  0.000  0.000  0.000  0.000  0.000  0.000   4.15   0.00   0.00      0      0    335.4   0.03   0.00   0.24    0.30    0.29    0.04    0.00    0.00    0.00    0.00    0.00      0      0      0       0       0  9.40
 2020 162    57    11    4.0      1   0.07     23     15      0     32     38     38      0    0.0  0.000      0      0  0.000  0.000  0.000  0.000  0.000  0.000  0.000   3.55   0.00   0.00      0      0    315.6   0.03   0.00   0.24    0.38    0.37    0.07    0.00    0.00    0.00    0.00    0.00      0      0      0       0       0 12.21
 2020 163    58    12    5.0      1   0.10     34     15      0     40     49     49      0    0.0  0.000      0      0  0.000  0.000  0.000  0.000  0.000  0.000  0.000   3.21   0.00   0.00      0      0    291.0   0.04   0.00   0.25    0.46    0.44    0.09    0.00    0.00    0.00    0.00    0.00      0      0      0       0       0 18.70
 2020 164    59    13    5.0      1   0.13     49     15      0     50     64     64      0    0.0  0.000      0      0  0.000  0.000  0.000  0.000  0.000  0.000  0.000   3.14   0.00   0.00      0      0    270.2   0.06   0.00   0.26    0.56    0.53    0.12    0.00    0.00    0.00    0.00    0.00      0      0      0       0       0 20.33
 2020 165    60    14    6.0      1   0.17     67     15      0     64     82     82      0    0.0  0.000      0      0  0.000  0.000  0.000  0.000  0.000  0.000  0.000   3.17   0.00   0.00      0      0    253.7   0.08   0.00   0.27    0.71    0.67    0.18    0.00    0.00    0.00    0.00    0.00      0      0      0       0       1 20.05
 2020 166    61    15    6.0      1   0.21     89     15      0     74    104    104      0    0.0  0.000      0      0  0.000  0.000  0.000  0.000  0.000  0.000  0.000   3.12   0.00   0.00      0      0    239.1   0.10   0.00   0.29    0.78    0.77    0.22    0.00    0.00    0.00    0.00    0.00      0      0      0       0       1 21.18
 2020 167    62    16    7.0      1   0.26    115     15      0     97    130    130      0    0.0  0.000      0      0  0.000  0.028  0.000  0.000  0.000  0.000  0.000   3.12   0.00   0.00      0      0    226.6   0.12   0.00   0.31    0.82    1.01    0.35    0.00    0.00    0.00    0.00    0.00      0      0      0       0       1 21.41
 2020 168    63    17    7.0      2   0.32    139     15      0    128    154    154      0    0.0  0.000      0      0  0.000  0.000  0.000  0.000  0.000  0.000  0.000   3.25   0.00   0.00      0      0    232.7   0.15   0.00   0.33    0.81    1.33    0.50    0.05    0.00    0.00    0.00    0.00      0      0      0       0       2 20.62
 2020 169    64    18    7.0      2   0.40    181     15      0    156    196    196      0    0.0  0.000      0      0  0.000  0.000  0.006  0.000  0.000  0.000  0.000   3.06   0.00   0.00      0      0    220.4   0.18   0.00   0.36    0.80    1.49    0.63    0.17    0.00    0.00    0.00    0.00      0      0      0       0       3 22.19
 2020 170    65    19    8.0      2   0.47    221     15      0    198    236    236      0    0.0  0.000      0      0  0.000  0.000  0.000  0.000  0.000  0.000  0.000   3.18   0.00   0.00      0      0    211.3   0.21   0.00   0.39    0.82    1.73    0.82    0.39    0.00    0.00    0.00    0.00      0      0      0       0       3 18.44
 2020 171    66    20    8.0      2   0.51    250     15      0    220    265    265      0    0.0  0.000      0      0  0.000  0.000  0.000  0.000  0.000  0.000  0.000   3.38   0.00   0.00      0      0    206.0   0.23   0.00   0.41    0.87    1.83    0.91    0.51    0.00    0.00    0.00    0.00      0      0      0       0       4 11.84
 2020 172    67    21    8.0      2   0.59    297     15      0    269    312    312      0    0.0  0.000      0      0  0.000  0.000  0.000  0.000  0.000  0.000  0.000   3.78   0.00   0.00      0      0    198.7   0.27   0.00   0.44    1.01    2.05    1.09    0.81    0.00    0.00    0.00    0.00      0      0      0       0       5 17.70
 2020 173    68    22    9.0      2   0.68    353     15      0    300    368    368      0    0.0  0.000      0      0  0.000  0.000  0.000  0.000  0.000  0.000  0.000   3.73   0.00   0.00      0      0    191.6   0.30   0.00   0.46    1.08    2.16    1.21    1.00    0.03    0.00    0.00    0.00      0      0      0       0       7 18.43
 2020 174    69    23    9.0      2   0.76    408     15      0    364    423    423      0    0.0  0.000      0      0  0.000  0.000  0.000  0.000  0.000  0.000  0.000   3.68   0.00   0.00      0      0    185.8   0.34   0.00   0.48    1.23    2.38    1.44    1.38    0.12    0.00    0.00    0.00      0      0      0       0       8 16.44
 2020 175    70    24   10.0      3   0.84    467     15      0    431    482    482      0    0.0  0.000      0      0  0.000  0.000  0.000  0.000  0.000  0.000  0.000   3.60   0.00   0.00      0      0    180.0   0.38   0.00   0.49    1.36    2.56    1.68    1.78    0.28    0.00    0.00    0.00      0      0      0       0      10 16.02
 2020 176    71    25   10.0      3   0.97    554     16      0    502    570    570      0    0.0  0.000      0      0  0.000  0.000  0.000  0.000  0.000  0.000  0.000   3.54   0.00   0.00      0      0    174.6   0.43   0.00   0.52    1.47    2.73    1.93    2.20    0.52    0.00    0.00    0.00      0      0      0       0      12 21.10
 2020 177    72    26   10.0      3   1.11    653     19      0    573    671    671      0    0.0  0.000      0      0  0.000  0.000  0.000  0.000  0.000  0.000  0.000   3.48   0.00   0.00      0      0    169.6   0.50   0.00   0.54    1.54    2.82    2.17    2.62    0.86    0.00    0.00    0.00      0      0      0       0      15 21.41
 2020 178    73    27   11.0      3   1.26    764     25      0    657    788    788      0    0.0  0.000      0      0  0.000  0.000  0.000  0.000  0.000  0.000  0.000   3.42   0.00   0.00      0      0    164.8   0.57   0.00   0.57    1.59    2.84    2.44    3.13    1.25    0.11    0.00    0.00      0      0      0       0      18 21.48
 2020 179    74    28   11.0      3   1.40    871     33      0    744    904    904      0    0.0  0.000      0      0  0.000  0.000  0.000  0.000  0.000  0.000  0.000   3.32   0.00   0.00      0      0    160.9   0.63   0.00   0.59    1.59    2.87    2.64    3.58    1.71    0.38    0.00    0.00      0      0      0       0      21 18.77
 2020 180    75    29   12.0      3   1.58   1008     48      0    829   1056   1056      0    0.0  0.000      0      0  0.000  0.000  0.000  0.000  0.000  0.000  0.000   3.08   0.00   0.00      0      0    156.6   0.71   0.00   0.61    1.58    2.93    2.71    3.92    2.22    0.87    0.00    0.00      0      0      0       0      25 19.08
 2020 181    76    30   12.0      3   1.77   1162     71      0    887   1234   1234      0    0.0  0.000      0      0  0.000  0.000  0.000  0.000  0.000  0.000  0.000   2.81   0.00   0.00      0      0    152.4   0.80   0.00   0.64    1.57    2.99    2.74    4.00    2.60    1.35    0.00    0.00      0      0      0       0      29 20.88
 2020 182    77    31   12.0      3   1.94   1300     98      0    999   1399   1399      0    0.0  0.000      0      0  0.000  0.000  0.000  0.000  0.000  0.000  0.000   2.59   0.00   0.00      0      0    149.3   0.87   0.00   0.66    1.56    3.18    2.84    4.00    3.23    2.37    0.00    0.00      0      0      0       0      33 18.17
 2020 183    78    32   13.0      3   2.08   1422    128      0   1104   1549   1549      0    0.0  0.000      0      0  0.000  0.000  0.041  0.000  0.000  0.000  0.000   2.42   0.00   0.00      0      0    146.0   0.93   0.00   0.67    1.55    3.44    2.98    4.00    3.72    3.08    0.02    0.00      0      0      0       0      38 17.40
 2020 184    79    33   13.0      3   2.20   1544    164      0   1180   1707   1707      0    0.0  0.000      0      0  0.000  0.000  0.078  0.000  0.000  0.000  0.000   2.26   0.00   0.00      0      0    142.4   0.99   0.00   0.68    1.54    3.75    3.14    4.00    3.89    3.43    0.04    0.00      0      0      0       0      44 19.11
 2020 185    80    34   14.0      3   2.28   1644    199      0   1283   1843   1843      0    0.0  0.000      0      0  0.000  0.000  0.104  0.000  0.000  0.000  0.000   2.16   0.00   0.00      0      0    139.0   1.03   0.00   0.69    2.01    4.00    3.39    4.00    4.00    3.57    0.09    0.00      0      0      0       0      50 16.94
 2020 186    81    35   14.0      3   2.35   1738    237      0   1392   1975   1975      0    0.0  0.000      0      0  0.000  0.000  0.126  0.000  0.000  0.000  0.000   2.07   0.00   0.00      0      0    135.5   1.06   0.00   0.70    2.48    4.00    3.65    4.00    4.00    3.72    0.15    0.00      0      0      0       0      56 16.75
 2020 187    82    36   14.0      3   2.41   1825    278      0   1425   2103   2103      0    0.0  0.000      0      0  0.000  0.000  0.140  0.000  0.000  0.000  0.000   2.02   0.00   0.00      0      0    132.1   1.08   0.00   0.71    2.63    4.00    3.72    4.00    4.00    3.76    0.17    0.00      0      0      0       0      63 16.30
 2020 188    83    37   15.0      3   2.46   1909    324      0   1538   2233   2233      0    0.0  0.000      0      0  0.000  0.000  0.147  0.000  0.000  0.000  0.000   1.96   0.00   0.00      0      0    128.8   1.10   0.00   0.71    3.11    4.00    3.97    4.00    4.00    3.90    0.25    0.00      0      0      0       0      70 16.15
 2020 189    84    38   15.0      3   2.52   2004    382      0   1647   2386   2386      0    0.0  0.000      0      0  0.000  0.000  0.153  0.000  0.000  0.000  0.000   1.89   0.00   0.00      0      0    125.6   1.13   0.00   0.72    3.56    4.00    4.00    4.00    4.00    4.00    0.33    0.00      0      0      0       0      78 18.37
 2020 190    85    39   15.0      3   2.58   2108    455      0   1748   2562   2562      0    0.0  0.000      0      0  0.000  0.000  0.158  0.000  0.000  0.000  0.000   1.81   0.00   0.00      0      0    122.3   1.16   0.00   0.74    3.96    4.00    4.00    4.00    4.00    4.00    0.40    0.00      0      0      0       0      86 20.24
 2020 191    86    40   16.0      3   2.63   2203    531      0   1835   2734   2734      0    0.0  0.000      0      0  0.000  0.000  0.166  0.000  0.000  0.000  0.000   1.74   0.00   0.00      0      0    119.2   1.18   0.00   0.75    4.00    4.00    4.00    4.00    4.00    4.00    0.47    0.00      0      0      0       0      95 19.10
 2020 192    87    41   16.0      3   2.67   2294    612      0   1857   2906   2906      0    0.0  0.000      0      0  0.000  0.000  0.176  0.000  0.000  0.000  0.000   1.68   0.00   0.00      0      0    116.2   1.20   0.00   0.76    4.00    4.00    4.00    4.00    4.00    4.00    0.49    0.00      0      0      0       0     104 18.85
 2020 193    88    42   17.0      3   2.84   2522    729      0   1866   3251   3251      0    0.0  0.000      0      0  0.000  0.000  0.183  0.000  0.000  0.000  0.000   1.54   0.00   0.00      0      0    112.7   1.28   0.00   0.77    4.00    4.00    4.00    4.00    4.00    4.00    0.51    0.00      0      0      0       0     113 18.27
 2020 194    89    43   17.0      3   2.90   2645    870      0   1892   3515   3515      0    0.0  0.000      0      0  0.000  0.000  0.189  0.000  0.000  0.000  0.000   1.46   0.00   0.00      0      0    109.7   1.30   0.00   0.77    4.00    4.00    4.00    4.00    4.00    4.00    0.53    0.00      0      0      0       0     123 18.19
 2020 195    90    44   17.0      3   2.91   2724    989      0   1961   3714   3714      0    0.0  0.000      0      0  0.000  0.000  0.235  0.000  0.000  0.000  0.000   1.42   0.00   0.00      0      0    106.7   1.31   0.00   0.78    3.98    4.00    4.00    4.00    4.00    4.00    0.60    0.00      0      0      0       0     132 17.20
 2020 196    91    45   18.0      3   2.89   2789   1102      0   1983   3891   3895      0    0.0  0.000      4      0  0.000  0.000  0.270  0.000  0.000  0.000  0.000   1.38   0.00   0.00      0      4    103.7   1.31   0.00   0.79    4.00    4.00    4.00    4.00    4.00    4.00    0.62    0.00      0      0      0       0     142 17.95
 2020 197    92    46   18.0      3   2.86   2838   1194      0   2026   4032   4042      0    0.0  0.000     10      0  0.000  0.000  0.285  0.000  0.000  0.000  0.000   1.36   0.00   0.00      0     10    100.7   1.31   0.00   0.80    4.00    4.00    4.00    4.00    4.00    4.00    0.66    0.00      0      0      0       0     152 15.55
 2020 198    93    47   18.0      3   2.82   2885   1293      0   2090   4178   4198      0    0.0  0.000     20      0  0.000  0.000  0.294  0.000  0.000  0.000  0.000   1.33   0.00   0.00      0     20     97.8   1.31   0.00   0.81    4.00    4.00    4.00    4.00    4.00    4.00    0.72    0.00      0      0      0       0     162 17.35
 2020 199    94    48   19.0      3   2.79   2935   1402      0   2137   4337   4370      0    0.0  0.000     33      0  0.000  0.000  0.293  0.000  0.000  0.000  0.000   1.31   0.00   0.01      0     33     95.1   1.31   0.00   0.82    4.00    4.00    4.00    4.00    4.00    4.00    0.76    0.00      0      0      0       0     172 19.77
 2020 200    95    49   19.0      3   2.76   2982   1511      0   2166   4494   4544      0    0.0  0.000     50      0  0.000  0.000  0.292  0.000  0.000  0.000  0.000   1.28   0.00   0.01      0     50     92.5   1.31   0.00   0.83    4.00    4.00    4.00    4.00    4.00    4.00    0.79    0.00      0      0      0       0     183 20.26
 2020 201    96    50   20.0      3   2.71   3017   1588      0   2216   4606   4679      0    0.0  0.000     73      0  0.000  0.000  0.298  0.000  0.000  0.000  0.000   1.26   0.00   0.02      0     73     89.9   1.31   0.00   0.84    4.00    4.00    4.00    4.00    4.00    4.00    0.83    0.00      0      0      0       0     194 16.25
 2020 202    97    51   20.0      3   2.67   3051   1650      0   2297   4701   4813      0    0.0  0.000    112      0  0.000  0.000  0.303  0.000  0.000  0.000  0.000   1.25   0.00   0.02      0    112     87.4   1.31   0.00   0.85    4.00    4.00    4.00    4.00    4.00    4.00    0.90    0.00      0      0      0       0     205 16.50
 2020 203    98    52   20.0      3   2.62   3080   1690      0   2389   4770   4932      0    0.0  0.000    163      0  0.000  0.000  0.299  0.000  0.000  0.000  0.000   1.27   0.00   0.03      0    163     85.0   1.31   0.00   0.86    4.00    4.00    4.00    4.00    4.00    4.00    0.97    0.00      0      0      0       0     216 14.70
 2020 204    99    53   20.0      3   2.58   3116   1736      0   2466   4852   5081      0    0.0  0.000    229      0  0.000  0.000  0.286  0.000  0.000  0.000  0.000   1.27   0.00   0.05      0    229     82.7   1.31   0.00   0.87    4.00    4.00    4.00    4.00    4.00    4.00    1.03    0.00      0      0      0       0     228 17.85
 2020 205   100    54   20.0      3   2.54   3155   1778      0   2522   4933   5241      0    0.0  0.000    309      0  0.000  0.000  0.273  0.000  0.000  0.000  0.000   1.27   0.00   0.06      0    309     80.6   1.31   0.00   0.88    4.00    4.00    4.00    4.00    4.00    4.00    1.08    0.00      0      0      0       0     241 18.75
 2020 206   101    55   20.0      3   2.52   3197   1797      0   2586   4993   5413      0    0.0  0.000    420      0  0.000  0.000  0.262  0.000  0.000  0.000  0.000   1.28   0.00   0.08      0    420     78.7   1.31   0.00   0.89    4.00    4.00    4.00    4.00    4.00    4.00    1.13    0.00      0      0      0       0     253 19.68
 2020 207   102    56   20.0      3   2.49   3240   1864      0   2648   5104   5591      0    0.0  0.000    487      0  0.000  0.000  0.253  0.000  0.000  0.000  0.000   1.27   0.00   0.09      0    487     76.8   1.31   0.00   0.90    4.00    4.00    4.00    4.00    4.00    4.00    1.17    0.00      0      0      0       0     266 20.01
 2020 208   103    57   20.0      3   2.47   3283   1869      0   2675   5152   5767      0    0.0  0.000    615      0  0.000  0.000  0.240  0.000  0.000  0.000  0.000   1.27   0.00   0.11      0    615     75.1   1.31   0.00   0.91    4.00    4.00    4.00    4.00    4.00    4.00    1.19    0.00      0      0      0       0     279 19.34
 2020 209   104    58   20.0      3   2.43   3317   1885      0   2673   5202   5906      0    0.0  0.000    704      0  0.000  0.000  0.238  0.000  0.000  0.000  0.000   1.27   0.00   0.12      0    704     73.3   1.31   0.00   0.92    4.00    4.00    4.00    4.00    3.99    3.99    1.19    0.00      0      0      0       0     293 15.20
 2020 210   105    59   20.0      4   2.37   3280   1982      0   2665   5262   6010      0    0.0  0.000    748      0  0.000  0.000  0.230  0.000  0.000  0.000  0.000   1.27   0.00   0.12      0    748     72.2   1.31   0.00   0.92    4.00    4.00    3.99    3.99    3.98    3.98    1.19    0.00      0      0      0       0     306 14.60
 2020 211   106    60   20.0      4   2.31   3240   2160      0   2664   5400   6242      0    0.0  0.000    842      0  0.000  0.000  0.214  0.000  0.000  0.000  0.000   1.26   0.00   0.13      0    842     71.2   1.31   0.00   0.93    4.00    4.00    4.00    4.00    3.98    3.98    1.19    0.00      0      0      0       0     320 17.25
 2020 212   107    61   20.0      4   2.25   3198   2314      0   2661   5512   6443      0    0.0  0.000    931      0  0.000  0.000  0.203  0.000  0.000  0.000  0.000   1.24   0.00   0.14      0    931     70.4   1.31   0.00   0.94    4.00    4.00    4.00    4.00    3.97    3.97    1.19    0.00      0      0      0       0     333 12.95
 2020 213   108    62   20.0      4   2.19   3154   2500      0   2661   5654   6699      0    0.0  0.000   1046      0  0.000  0.000  0.206  0.000  0.000  0.000  0.000   1.23   0.00   0.16      0   1046     69.6   1.31   0.00   0.95    4.00    4.00    4.00    4.00    3.97    3.97    1.19    0.00      0      0      0       0     346 13.45
 2020 214   109    63   20.0      4   2.14   3107   2681      0   2661   5788   6953      0    0.0  0.000   1165      0  0.000  0.000  0.200  0.000  0.000  0.000  0.000   1.22   0.00   0.17      0   1165     68.8   1.31   0.00   0.96    4.00    4.00    4.00    4.00    3.97    3.97    1.19    0.00      0      0      0       0     359 14.20
 2020 215   110    64   20.0      4   2.09   3057   2827      0   2658   5884   7150      0    0.0  0.000   1266      0  0.000  0.000  0.199  0.000  0.000  0.000  0.000   1.22   0.00   0.18      0   1266     68.2   1.31   0.00   0.96    4.00    4.00    4.00    4.00    3.97    3.97    1.19    0.00      0      0      0       0     373 13.55
 2020 216   111    65   20.0      4   2.03   3006   2964      0   2655   5970   7333      0    0.0  0.000   1363      0  0.000  0.000  0.199  0.000  0.000  0.000  0.000   1.22   0.00   0.19      0   1363     67.7   1.31   0.00   0.97    4.00    4.00    4.00    4.00    3.96    3.96    1.18    0.00      0      0      0       0     386 12.20
 2020 217   112    66   20.0      4   1.98   2952   3103      0   2652   6055   7523      0    0.0  0.000   1467      0  0.000  0.000  0.196  0.000  0.000  0.000  0.000   1.21   0.00   0.20      0   1467     67.2   1.31   0.00   0.98    4.00    4.00    4.00    4.00    3.96    3.96    1.18    0.00      0      0      0       0     399 13.85
 2020 218   113    67   20.0      4   1.94   2896   3256      0   2651   6152   7738      0    0.0  0.000   1586      0  0.000  0.000  0.194  0.000  0.000  0.000  0.000   1.20   0.00   0.20      0   1586     66.9   1.31   0.00   0.98    4.00    4.00    4.00    4.00    3.96    3.96    1.17    0.00      0      0      0       0     413 13.50
 2020 219   114    68   20.0      4   1.89   2837   3360      0   2646   6197   7867      0    0.0  0.000   1670      0  0.000  0.000  0.191  0.000  0.000  0.000  0.000   1.21   0.00   0.21      0   1670     66.6   1.31   0.00   0.99    4.00    4.00    4.00    4.00    3.95    3.95    1.17    0.00      0      0      0       0     426 15.55
 2020 220   115    69   20.0      4   1.85   2775   3507      0   2644   6282   8076      0    0.0  0.000   1794      0  0.000  0.000  0.188  0.000  0.000  0.000  0.000   1.20   0.00   0.22      0   1794     66.5   1.31   0.00   1.00    4.00    4.00    4.00    4.00    3.95    3.95    1.17    0.00      0      0      0       0     439 17.90
 2020 221   116    70   20.0      5   1.80   2775   3507    228   2647   6282   8305   1931   11.8  0.028   2023      8  0.000  0.000  0.182  0.000  0.000  0.000  0.000   1.18  11.29   0.24      0   2023     65.0   1.31   0.00   1.01    4.00    4.00    4.00    4.00    3.96    3.96    1.16    0.00      0      0      0       0     452 17.03
 2020 222   117    71   20.0      5   1.76   2775   3507    397   2661   6282   8474   1931   20.6  0.047   2192      8  0.000  0.000  0.192  0.000  0.000  0.000  0.000   1.16  18.13   0.26      0   2192     63.4   1.31   0.00   1.02    4.00    4.00    4.00    4.00    3.98    3.98    1.16    0.00      0      0      0       0     466 18.91
 2020 223   118    72   20.0      5   1.72   2775   3507    567   2667   6282   8644   1931   29.4  0.066   2362      8  0.000  0.000  0.191  0.000  0.000  0.000  0.000   1.15  24.02   0.27      0   2362     61.9   1.31   0.00   1.03    4.00    4.00    4.00    4.00    3.99    3.99    1.16    0.00      0      0      0       0     479 16.95
 2020 224   119    73   20.0      5   1.68   2775   3507    737   2678   6282   8814   1931   38.2  0.084   2532      8  0.000  0.000  0.191  0.000  0.000  0.000  0.000   1.13  29.12   0.29      0   2532     60.4   1.31   0.00   1.04    4.00    4.00    4.00    4.00    4.00    4.00    1.16    0.00      0      0      0       0     492 15.05
 2020 225   120    74   20.0      5   1.64   2775   3507    907   2680   6282   8983   1931   47.0  0.101   2702      8  0.000  0.000  0.192  0.000  0.000  0.000  0.000   1.12  33.58   0.30      0   2702     59.0   1.31   0.00   1.05    4.00    4.00    4.00    4.00    4.00    4.00    1.15    0.00      0      0      0       0     506 16.40
 2020 226   121    75   20.0      5   1.60   2775   3507   1077   2685   6282   9153   1931   55.8  0.118   2871      8  0.000  0.000  0.191  0.000  0.000  0.000  0.000   1.10  37.51   0.31      0   2871     57.6   1.31   0.00   1.06    4.00    4.00    4.00    4.00    4.00    4.00    1.15    0.00      0      0      0       0     519 18.45
 2020 227   122    76   20.0      5   1.56   2775   3507   1247   2680   6282   9323   1931   64.6  0.134   3041      8  0.000  0.000  0.192  0.000  0.000  0.000  0.000   1.08  41.00   0.33      0   3041     56.2   1.31   0.00   1.07    4.00    4.00    4.00    4.00    3.99    3.99    1.15    0.00      0      0      0       0     532 17.25
 2020 228   123    77   20.0      5   1.52   2775   3507   1417   2679   6282   9493   1931   73.4  0.149   3211      8  0.000  0.000  0.193  0.000  0.000  0.000  0.000   1.07  44.12   0.34      0   3211     54.8   1.31   0.00   1.07    4.00    4.00    4.00    4.00    3.99    3.99    1.14    0.00      0      0      0       0     546 17.15
 2020 229   124    78   20.0      5   1.48   2775   3507   1587   2679   6282   9663   1931   82.2  0.164   3381      8  0.000  0.000  0.194  0.000  0.000  0.000  0.000   1.05  46.93   0.35      0   3381     53.5   1.31   0.00   1.08    4.00    4.00    4.00    4.00    3.99    3.99    1.14    0.00      0      0      0       0     559 17.15
 2020 230   125    79   20.0      5   1.45   2775   3507   1757   2688   6282   9833   1931   91.0  0.179   3551      8  0.000  0.000  0.195  0.000  0.000  0.000  0.000   1.03  49.47   0.36      0   3551     52.2   1.31   0.00   1.09    4.00    4.00    4.00    4.00    4.00    4.00    1.14    0.00      0      0      0       0     573 15.25
 2020 231   126    80   20.0      5   1.41   2775   3507   1927   2691   6282  10003   1931   99.8  0.193   3721      8  0.000  0.000  0.197  0.000  0.000  0.000  0.000   1.01  51.78   0.37      0   3721     50.9   1.31   0.00   1.10    4.00    4.00    4.00    4.00    4.00    4.00    1.14    0.00      0      0      0       0     586 15.90
 2020 232   127    81   20.0      5   1.38   2775   3507   2097   2682   6282  10173   1931  108.6  0.206   3891      8  0.000  0.000  0.198  0.000  0.000  0.000  0.000   1.00  53.88   0.38      0   3891     49.7   1.31   0.00   1.11    3.98    4.00    3.99    3.99    3.99    3.99    1.13    0.00      0      0      0       0     599 16.55
 2020 233   128    82   20.0      5   1.34   2775   3507   2266   2681   6282  10343   1931  117.4  0.219   4061      8  0.000  0.000  0.202  0.000  0.000  0.000  0.000   0.98  55.81   0.39      0   4061     48.4   1.31   0.00   1.12    3.96    4.00    4.00    4.00    3.99    3.99    1.13    0.00      0      0      0       0     613 15.35
 2020 234   129    83   20.0      5   1.31   2775   3507   2436   2673   6282  10513   1931  126.2  0.232   4231      8  0.000  0.000  0.209  0.000  0.000  0.000  0.000   0.96  57.59   0.40      0   4231     47.2   1.31   0.00   1.13    3.96    4.00    3.99    3.99    3.98    3.98    1.12    0.00      0      0      0       0     626 16.35
 2020 235   130    84   20.0      5   1.28   2775   3507   2606   2666   6282  10683   1931  135.0  0.244   4401      8  0.000  0.000  0.216  0.000  0.000  0.000  0.000   0.94  59.22   0.41      0   4401     46.0   1.31   0.00   1.13    3.98    4.00    3.99    3.99    3.97    3.97    1.12    0.00      0      0      0       0     640 16.65
 2020 236   131    85   20.0      5   1.24   2775   3507   2776   2658   6282  10853   1931  143.8  0.256   4571      8  0.000  0.000  0.228  0.000  0.000  0.000  0.000   0.92  60.74   0.42      0   4571     44.8   1.31   0.00   1.14    3.98    4.00    3.98    3.98    3.96    3.96    1.12    0.00      0      0      0       0     653 17.92
 2020 237   132    86   20.0      5   1.21   2775   3507   2946   2651   6282  11023   1931  152.6  0.267   4741      8  0.000  0.000  0.237  0.000  0.000  0.000  0.000   0.91  62.15   0.43      0   4741     43.6   1.31   0.00   1.15    3.99    4.00    3.98    3.98    3.95    3.95    1.11    0.00      0      0      0       0     666 17.64
 2020 238   133    87   20.0      5   1.18   2775   3507   3116   2642   6282  11193   1931  161.4  0.278   4911      8  0.000  0.000  0.235  0.000  0.000  0.000  0.000   0.90  63.46   0.44      0   4911     42.4   1.31   0.00   1.16    3.99    4.00    3.97    3.97    3.93    3.93    1.11    0.00      0      0      0       0     680 18.25
 2020 239   134    88   20.0      5   1.15   2775   3507   3286   2633   6282  11362   1931  170.2  0.289   5081      8  0.000  0.000  0.237  0.000  0.000  0.000  0.000   0.88  64.68   0.45      0   5081     41.3   1.31   0.00   1.17    3.99    4.00    3.96    3.96    3.92    3.92    1.10    0.00      0      0      0       0     693 16.08
 2020 240   135    89   20.0      5   1.12   2775   3507   3456   2623   6282  11532   1931  179.0  0.300   5250      8  0.000  0.000  0.239  0.000  0.000  0.000  0.000   0.87  65.82   0.46      0   5250     40.2   1.31   0.00   1.18    3.98    3.99    3.95    3.95    3.90    3.90    1.10    0.00      0      0      0       0     706 17.87
 2020 241   136    90   20.0      5   1.09   2775   3507   3626   2612   6282  11702   1931  187.8  0.310   5420      8  0.000  0.000  0.243  0.000  0.000  0.000  0.000   0.85  66.89   0.46      0   5420     39.1   1.31   0.00   1.19    3.97    3.98    3.93    3.93    3.89    3.89    1.09    0.00      0      0      0       0     719 18.16
 2020 242   137    91   20.0      5   1.06   2775   3426   3796   2599   6201  11791   1931  196.6  0.322   5590      8  0.000  0.000  0.254  0.000  0.000  0.000  0.000   0.84  67.90   0.47      0   5590     38.1   1.31   0.00   1.19    3.97    3.98    3.93    3.93    3.89    3.89    1.09    0.00      0      0      0       0     732 12.90
 2020 243   138    92   20.0      5   1.03   2775   3405   3966   2586   6180  11940   1931  205.4  0.332   5760      8  0.000  0.000  0.268  0.000  0.000  0.000  0.000   0.83  68.85   0.48      0   5760     37.0   1.31   0.00   1.19    3.97    3.98    3.93    3.93    3.89    3.89    1.09    0.00      0      0      0       0     745 16.65
 2020 244   139    93   20.0      5   1.00   2775   3398   4136   2573   6173  12103   1931  214.2  0.342   5930      8  0.000  0.000  0.271  0.000  0.000  0.000  0.000   0.81  69.74   0.49      0   5930     36.0   1.31   0.00   1.19    3.97    3.98    3.93    3.93    3.89    3.89    1.09    0.00      0      0      0       0     758 11.30
 2020 245   140    94   20.0      5   0.97   2775   3326   4306   2560   6101  12201   1931  223.0  0.353   6100      8  0.000  0.000  0.278  0.000  0.000  0.000  0.000   0.82  70.58   0.50      0   6100     35.0   1.31   0.00   1.19    3.97    3.98    3.93    3.93    3.89    3.89    1.09    0.00      0      0      0       0     771 12.50
 2020 246   141    95   20.0      5   0.94   2775   3314   4476   2547   6089  12359   1931  231.8  0.362   6270      8  0.000  0.000  0.277  0.000  0.000  0.000  0.000   0.80  71.38   0.51      0   6270     34.0   1.31   0.00   1.19    3.97    3.98    3.93    3.93    3.89    3.89    1.09    0.00      0      0      0       0     784 14.45
 2020 247   142    96   20.0      5   0.92   2775   3301   4645   2534   6076  12516   1931  240.6  0.371   6440      8  0.000  0.000  0.271  0.000  0.000  0.000  0.000   0.79  72.14   0.51      0   6440     33.0   1.31   0.00   1.19    3.97    3.98    3.93    3.93    3.89    3.89    1.09    0.00      0      0      0       0     796 11.75
 2020 248   143    97   20.0      5   0.89   2775   3278   4815   2522   6053  12663   1931  249.4  0.380   6610      8  0.000  0.000  0.281  0.000  0.000  0.000  0.000   0.78  72.85   0.52      0   6610     32.1   1.31   0.00   1.19    3.97    3.98    3.93    3.93    3.89    3.89    1.09    0.00      0      0      0       0     809 11.90
 2020 249   144    98   20.0      5   0.86   2775   3245   4985   2509   6020  12799   1931  258.2  0.389   6780      8  0.000  0.000  0.288  0.000  0.000  0.000  0.000   0.77  73.53   0.53      0   6780     31.2   1.31   0.00   1.19    3.97    3.98    3.93    3.93    3.89    3.89    1.09    0.00      0      0      0       0     822 16.75
 2020 250   145    99   20.0      5   0.84   2775   3213   5138   2497   5987  12920   1931  266.1  0.398   6933      8  0.000  0.000  0.292  0.000  0.000  0.000  0.000   0.76  74.12   0.54      0   6933     30.3   1.31   0.00   1.19    3.97    3.98    3.93    3.93    3.89    3.89    1.09    0.00      0      0      0       0     834 19.50
 2020 251   146   100   20.0      5   0.82   2775   3160   5308   2484   5935  13037   1931  274.9  0.407   7103      8  0.000  0.000  0.293  0.000  0.000  0.000  0.000   0.75  74.73   0.54      0   7103     29.4   1.31   0.00   1.19    3.97    3.98    3.93    3.93    3.89    3.89    1.09    0.00      0      0      0       0     847 16.00
 2020 252   147   101   20.0      5   0.73   2775   3114   5371   2472   5889  13055   1931  278.2  0.411   7166      8  0.000  0.000  0.308  0.000  0.000  0.000  0.000   0.76  74.96   0.55      0   7166     26.4   1.31   0.00   1.19    3.97    3.98    3.93    3.93    3.89    3.89    1.09    0.00      0      0      0       0     859  2.85
 2020 253   148   102   20.0      5   0.60   2775   3051   5434   2459   5826  13055   1931  281.4  0.416   7229      8  0.000  0.000  0.290  0.000  0.000  0.000  0.000   0.77  75.18   0.55      0   7229     21.5   1.31   0.00   1.19    3.97    3.98    3.93    3.93    3.89    3.89    1.09    0.00      0      0      0       0     871  0.00
 2020 254   149   103   20.0      5   0.58   2775   3025   5488   2447   5800  13082   1931  284.2  0.419   7282      8  0.000  0.000  0.277  0.000  0.000  0.000  0.000   0.77  75.36   0.56      0   7282     20.9   1.31   0.00   1.19    3.97    3.98    3.93    3.93    3.89    3.89    1.09    0.00      0      0      0       0     884  1.73
 2020 255   150   104   20.0      5   0.56   2775   2959   5649   2435   5734  13177   1931  292.5  0.429   7443      8  0.000  0.000  0.262  0.000  0.000  0.000  0.000   0.76  75.89   0.56      0   7443     20.3   1.31   0.00   1.19    3.97    3.98    3.93    3.93    3.89    3.89    1.09    0.00      0      0      0       0     896  7.45
 2020 256   151   105   20.0      5   0.55   2775   2885   5819   2423   5659  13273   1931  301.3  0.438   7613      8  0.000  0.000  0.286  0.000  0.000  0.000  0.000   0.75  76.43   0.57      0   7613     19.7   1.31   0.00   1.19    3.97    3.98    3.93    3.93    3.89    3.89    1.09    0.00      0      0      0       0     908 10.70
 2020 257   152   106   20.0      5   0.53   2775   2806   5989   2410   5581  13364   1931  310.1  0.448   7783      8  0.000  0.000  0.300  0.000  0.000  0.000  0.000   0.74  76.94   0.58      0   7783     19.2   1.31   0.00   1.19    3.97    3.98    3.93    3.93    3.89    3.89    1.09    0.00      0      0      0       0     920  9.73
 2020 258   153   107   20.0      5   0.52   2775   2713   6159   2398   5487  13441   1931  318.9  0.458   7953      8  0.000  0.000  0.308  0.000  0.000  0.000  0.000   0.73  77.44   0.59      0   7953     18.6   1.31   0.00   1.19    3.97    3.98    3.93    3.93    3.89    3.89    1.09    0.00      0      0      0       0     932  9.60
 2020 259   154   108   20.0      5   0.50   2775   2619   6329   2386   5394  13517   1931  327.7  0.468   8123      8  0.000  0.000  0.314  0.000  0.000  0.000  0.000   0.73  77.91   0.60      0   8123     18.0   1.31   0.00   1.19    3.97    3.98    3.93    3.93    3.89    3.89    1.09    0.00      0      0      0       0     944 10.40
 2020 260   155   109   20.0      5   0.49   2775   2521   6498   2374   5296  13589   1931  336.5  0.478   8293      8  0.000  0.000  0.314  0.000  0.000  0.000  0.000   0.73  78.36   0.61      0   8293     17.5   1.31   0.00   1.19    3.97    3.98    3.93    3.93    3.89    3.89    1.09    0.00      0      0      0       0     956  9.60
 2020 261   156   110   20.0      5   0.47   2775   2420   6668   2363   5195  13658   1931  345.3  0.488   8463      8  0.000  0.000  0.311  0.000  0.000  0.000  0.000   0.73  78.80   0.62      0   8463     17.0   1.31   0.00   1.19    3.97    3.98    3.93    3.93    3.89    3.89    1.09    0.00      0      0      0       0     968  9.50
 2020 262   157   111   20.0      5   0.46   2775   2313   6838   2351   5088  13720   1931  354.1  0.498   8633      8  0.000  0.000  0.306  0.000  0.000  0.000  0.000   0.72  79.21   0.63      0   8633     16.5   1.31   0.00   1.19    3.97    3.98    3.93    3.93    3.89    3.89    1.09    0.00      0      0      0       0     980 10.35
 2020 263   158   112   20.0      5   0.44   2775   2205   7008   2339   4980  13783   1931  362.9  0.508   8803      8  0.000  0.000  0.303  0.000  0.000  0.000  0.000   0.72  79.61   0.64      0   8803     16.0   1.31   0.00   1.19    3.97    3.98    3.93    3.93    3.89    3.89    1.09    0.00      0      0      0       0     992 10.90
 2020 264   159   113   20.0      5   0.43   2775   2101   7178   2327   4875  13848   1931  371.7  0.518   8973      8  0.000  0.000  0.297  0.000  0.000  0.000  0.000   0.72  80.00   0.65      0   8973     15.5   1.31   0.00   1.19    3.97    3.98    3.93    3.93    3.89    3.89    1.09    0.00      0      0      0       0    1003 14.45
 2020 265   160   114   20.0      5   0.42   2775   1994   7348   2316   4769  13912   1931  380.5  0.528   9143      8  0.000  0.000  0.296  0.000  0.000  0.000  0.000   0.71  80.37   0.66      0   9143     15.1   1.31   0.00   1.19    3.97    3.98    3.93    3.93    3.89    3.89    1.09    0.00      0      0      0       0    1015 11.95
 2020 266   161   115   20.0      5   0.41   2775   1888   7518   2304   4663  13975   1931  389.3  0.538   9313      8  0.000  0.000  0.296  0.000  0.000  0.000  0.000   0.71  80.73   0.67      0   9313     14.7   1.31   0.00   1.19    3.97    3.98    3.93    3.93    3.89    3.89    1.09    0.00      0      0      0       0    1027 11.25
 2020 267   162   116   20.0      5   0.39   2775   1776   7688   2293   4551  14033   1931  398.1  0.548   9482      8  0.000  0.000  0.294  0.000  0.000  0.000  0.000   0.70  81.08   0.68      0   9482     14.2   1.31   0.00   1.19    3.97    3.98    3.93    3.93    3.89    3.89    1.09    0.00      0      0      0       0    1038 13.10
 2020 268   163   117   20.0      5   0.38   2775   1680   7858   2281   4455  14107   1931  406.9  0.557   9652      8  0.000  0.000  0.291  0.000  0.000  0.000  0.000   0.70  81.41   0.68      0   9652     13.8   1.31   0.00   1.19    3.97    3.98    3.93    3.93    3.89    3.89    1.09    0.00      0      0      0       0    1050 14.56
 2020 269   164   118   20.0      5   0.37   2775   1602   7918   2270   4377  14089   1931  410.0  0.562   9712      8  0.000  0.000  0.286  0.000  0.000  0.000  0.000   0.71  81.52   0.69      0   9712     13.4   1.31   0.00   1.19    3.97    3.98    3.93    3.93    3.89    3.89    1.09    0.00      0      0      0       0    1061 15.25
 2020 270   165   119   20.0      5   0.36   2775   1602   7973   2258   4377  14144   1931  412.9  0.564   9768      8  0.000  0.000  0.230  0.000  0.000  0.000  0.000   0.72  81.63   0.69      0   9768     13.1   1.31   0.00   1.19    3.97    3.98    3.93    3.93    3.89    3.89    1.09    0.00      0      0      0       0    1072 14.70
 2020 271   166   120   20.0      5   0.36   2775   1602   7973   2258   4377  14144   1931  412.9  0.564   9768      8  0.000  0.000  0.194  0.000  0.000  0.000  0.000   0.72  81.63   0.69      0   9768     13.1   1.31   0.00   1.19    3.97    3.98    3.93    3.93    3.89    3.89    1.09    0.00      0      0      0       0    1072  9.10
 2020 272   167   121   20.0      5   0.36   2775   1602   7973   2258   4377  14144   1931  412.9  0.564   9768      8  0.000  0.000  0.194  0.000  0.000  0.000  0.000   0.72  81.63   0.69      0   9768     13.1   1.31   0.00   1.19    3.97    3.98    3.93    3.93    3.89    3.89    1.09    0.00      0      0      0       0    1072  4.82
 2020 273   168   122   20.0      5   0.36   2775   1602   7973   2258   4377  14144   1931  412.9  0.564   9768      8  0.000  0.000  0.194  0.000  0.000  0.000  0.000   0.72  81.63   0.69      0   9768     13.1   1.31   0.00   1.19    3.97    3.98    3.93    3.93    3.89    3.89    1.09    0.00      0      0      0       0    1072  8.98
 2020 274   169   123   20.0      5   0.36   2775   1602   7973   2258   4377  14144   1931  412.9  0.564   9768      8  0.000  0.000  0.194  0.000  0.000  0.000  0.000   0.72  81.63   0.69      0   9768     13.1   1.31   0.00   1.19    3.97    3.98    3.93    3.93    3.89    3.89    1.09    0.00      0      0      0       0    1072  8.37
 2020 275   170   124   20.0      5   0.36   2775   1602   7973   2258   4377  14144   1931  412.9  0.564   9768      8  0.000  0.000  0.194  0.000  0.000  0.000  0.000   0.72  81.63   0.69      0   9768     13.1   1.31   0.00   1.19    3.97    3.98    3.93    3.93    3.89    3.89    1.09    0.00      0      0      0       0    1072  4.85
 2020 276   171   125   20.0      5   0.36   2775   1602   7973   2258   4377  14144   1931  412.9  0.564   9768      8  0.000  0.000  0.194  0.000  0.000  0.000  0.000   0.72  81.63   0.69      0   9768     13.1   1.31   0.00   1.19    3.97    3.98    3.93    3.93    3.89    3.89    1.09    0.00      0      0      0       0    1072  7.79
 2020 277   172   126   20.0      5   0.36   2775   1602   7973   2258   4377  14144   1931  412.9  0.564   9768      8  0.000  0.000  0.194  0.000  0.000  0.000  0.000   0.72  81.63   0.69      0   9768     13.1   1.31   0.00   1.19    3.97    3.98    3.93    3.93    3.89    3.89    1.09    0.00      0      0      0       0    1072  0.00

*DSSAT Cropping System Model Ver. 4.7.5.035 -develop  JUN 11, 2021 16:21:59

*RUN   2        : 20 IRRIG, PETPEN KCB..... MZCER047 KSRT2001    2
 MODEL          : MZCER047 - Maize
 EXPERIMENT     : KSRT2001 SB ARM 2020 KS, IRRIGATED & NON-IRRIGATED
 DATA PATH      :
 TREATMENT  2   : 20 IRRIG, PETPEN KCB..... MZCER047
  
!                                                                                                                                                                                                                                      Root Dens. (cm/cm3) by soil depth (cm):
!                                                                                                                                                                                                                                      0-5    5-15   15-29   29-43   43-53   53-64  64-132 132-201
@YEAR DOY   DAS   DAP   L#SD   GSTD   LAID   LWAD   SWAD   GWAD   RWAD   VWAD   CWAD   G#AD   GWGD   HIAD   PWAD   P#AD   WSPD   WSGD   NSTD   EWSD  PST1A  PST2A   KSTD   LN%D   SH%D   HIPD   PWDD   PWTD     SLAD   CHTD   CWID   RDPD    RL1D    RL2D    RL3D    RL4D    RL5D    RL6D    RL7D    RL8D   CDAD   LDAD   SDAD   SNW0C   SNW1C  DTTD
 2020 151    46     0    0.0      0   0.00      0      0      0      0      0      0      0    0.0  0.000      0      0  0.000  0.000  0.000  0.000  0.000  0.000  0.000   0.00   0.00   0.00      0      0      0.0   0.00   0.00   0.05    0.00    0.00    0.00    0.00    0.00    0.00    0.00    0.00      0      0      0       0       0 20.06
 2020 152    47     1    0.0      0   0.00      0      0      0      0      0      0      0    0.0  0.000      0      0  0.000  0.000  0.000  0.000  0.000  0.000  0.000   0.00   0.00   0.00      0      0      0.0   0.00   0.00   0.08    0.00    0.00    0.00    0.00    0.00    0.00    0.00    0.00      0      0      0       0       0 20.09
 2020 153    48     2    0.0      0   0.00      0      0      0      0      0      0      0    0.0  0.000      0      0  0.000  0.000  0.000  0.000  0.000  0.000  0.000   0.00   0.00   0.00      0      0      0.0   0.00   0.00   0.11    0.00    0.00    0.00    0.00    0.00    0.00    0.00    0.00      0      0      0       0       0 20.05
 2020 154    49     3    0.0      0   0.00      0      0      0      0      0      0      0    0.0  0.000      0      0  0.000  0.000  0.000  0.000  0.000  0.000  0.000   0.00   0.00   0.00      0      0      0.0   0.00   0.00   0.14    0.00    0.00    0.00    0.00    0.00    0.00    0.00    0.00      0      0      0       0       0 21.04
 2020 155    50     4    0.0      0   0.00      0      0      0      0      0      0      0    0.0  0.000      0      0  0.000  0.000  0.000  0.000  0.000  0.000  0.000   0.00   0.00   0.00      0      0      0.0   0.00   0.00   0.17    0.00    0.00    0.00    0.00    0.00    0.00    0.00    0.00      0      0      0       0       0 20.80
 2020 156    51     5    2.0      1   0.00     15     15      0     15     30     30      0    0.0  0.000      0      0  0.000  0.000  0.012  0.000  0.000  0.000  0.000   4.40   0.00   0.00      0      0     30.6   0.00   0.00   0.19    0.30    0.15    0.02    0.00    0.00    0.00    0.00    0.00      0      0      0       0       0 20.17
 2020 157    52     6    2.0      1   0.01     15     15      0     15     30     30      0    0.0  0.000      0      0  0.595  0.731  0.010  0.000  0.000  0.000  0.000   4.40   0.00   0.00      0      0     38.4   0.00   0.00   0.20    0.30    0.16    0.02    0.00    0.00    0.00    0.00    0.00      0      0      0       0       0 21.65
 2020 158    53     7    3.0      1   0.01     15     15      0     16     30     30      0    0.0  0.000      0      0  0.626  0.751  0.001  0.000  0.000  0.000  0.000   4.40   0.00   0.00      0      0     46.6   0.00   0.00   0.22    0.31    0.16    0.02    0.00    0.00    0.00    0.00    0.00      0      0      0       0       0 21.85
 2020 159    54     8    3.0      1   0.01     15     15      0     16     30     30      0    0.0  0.000      0      0  0.679  0.786  0.000  0.000  0.000  0.000  0.000   4.40   0.00   0.00      0      0     54.2   0.00   0.00   0.23    0.31    0.16    0.02    0.00    0.00    0.00    0.00    0.00      0      0      0       0       0 22.57
 2020 160    55     9    4.0      1   0.01     15     15      0     17     30     30      0    0.0  0.000      0      0  0.690  0.794  0.000  0.000  0.000  0.000  0.000   4.40   0.00   0.00      0      0     84.2   0.01   0.00   0.24    0.31    0.16    0.02    0.00    0.00    0.00    0.00    0.00      0      0      0       0       0 22.32
 2020 161    56    10    4.0      1   0.02     15     15      0     17     30     30      0    0.0  0.000      0      0  0.335  0.557  0.000  0.000  0.000  0.000  0.000   4.40   0.00   0.00      0      0    113.8   0.01   0.00   0.25    0.31    0.17    0.02    0.00    0.00    0.00    0.00    0.00      0      0      0       0       0  9.40
 2020 162    57    11    4.0      1   0.02     15     15      0     19     30     30      0    0.0  0.000      0      0  0.442  0.628  0.000  0.000  0.000  0.000  0.000   4.40   0.00   0.00      0      0    148.5   0.01   0.00   0.26    0.32    0.18    0.03    0.00    0.00    0.00    0.00    0.00      0      0      0       0       0 12.21
 2020 163    58    12    5.0      1   0.03     15     15      0     20     30     30      0    0.0  0.000      0      0  0.604  0.737  0.000  0.000  0.000  0.000  0.000   4.40   0.00   0.00      0      0    190.1   0.01   0.00   0.27    0.33    0.20    0.04    0.00    0.00    0.00    0.00    0.00      0      0      0       0       0 18.70
 2020 164    59    13    5.0      1   0.04     15     15      0     22     30     30      0    0.0  0.000      0      0  0.592  0.729  0.000  0.000  0.000  0.000  0.000   4.40   0.00   0.00      0      0    243.1   0.02   0.00   0.29    0.34    0.21    0.05    0.00    0.00    0.00    0.00    0.00      0      0      0       0       0 20.33
 2020 165    60    14    6.0      1   0.04     15     15      0     24     30     30      0    0.0  0.000      0      0  0.664  0.777  0.000  0.000  0.000  0.000  0.000   4.40   0.00   0.00      0      0    288.1   0.02   0.00   0.30    0.36    0.23    0.06    0.00    0.00    0.00    0.00    0.00      0      0      0       0       0 20.05
 2020 166    61    15    6.0      1   0.05     17     15      0     25     32     32      0    0.0  0.000      0      0  0.688  0.792  0.000  0.000  0.000  0.000  0.000   4.12   0.00   0.00      0      0    296.8   0.02   0.00   0.31    0.36    0.23    0.06    0.00    0.00    0.00    0.00    0.00      0      0      0       0       0 21.18
 2020 167    62    16    7.0      1   0.06     20     15      0     25     35     35      0    0.0  0.000      0      0  0.788  0.859  0.000  0.000  0.000  0.000  0.000   3.80   0.00   0.00      0      0    281.5   0.03   0.00   0.33    0.36    0.24    0.06    0.00    0.00    0.00    0.00    0.00      0      0      0       0       0 21.41
 2020 168    63    17    7.0      2   0.06     22     15      0     26     37     37      0    0.0  0.000      0      0  0.780  0.854  0.000  0.000  0.000  0.000  0.000   3.67   0.00   0.00      0      0    290.7   0.03   0.00   0.35    0.37    0.25    0.07    0.00    0.00    0.00    0.00    0.00      0      0      0       0       0 20.62
 2020 169    64    18    7.0      2   0.07     25     15      0     27     40     40      0    0.0  0.000      0      0  0.790  0.860  0.006  0.000  0.000  0.000  0.000   3.60   0.00   0.00      0      0    277.5   0.03   0.00   0.37    0.36    0.25    0.07    0.00    0.00    0.00    0.00    0.00      0      0      0       0       0 22.19
 2020 170    65    19    8.0      2   0.08     29     15      0     28     45     45      0    0.0  0.000      0      0  0.719  0.813  0.000  0.000  0.000  0.000  0.000   3.44   0.00   0.00      0      0    265.8   0.04   0.00   0.39    0.36    0.25    0.07    0.00    0.00    0.00    0.00    0.00      0      0      0       0       0 18.44
 2020 171    66    20    8.0      2   0.09     36     15      0     29     51     51      0    0.0  0.000      0      0  0.336  0.558  0.000  0.000  0.000  0.000  0.000   3.30   0.00   0.00      0      0    259.5   0.04   0.00   0.41    0.36    0.26    0.08    0.01    0.00    0.00    0.00    0.00      0      0      0       0       1 11.84
 2020 172    67    21    8.0      2   0.11     45     15      0     30     60     60      0    0.0  0.000      0      0  0.587  0.725  0.000  0.000  0.000  0.000  0.000   4.63   0.00   0.00      0      0    249.2   0.05   0.00   0.44    0.36    0.27    0.08    0.01    0.00    0.00    0.00    0.00      0      0      0       0       1 17.70
 2020 173    68    22    9.0      2   0.13     53     15      0     31     68     68      0    0.0  0.000      0      0  0.582  0.722  0.000  0.000  0.000  0.000  0.000   4.38   0.00   0.00      0      0    240.2   0.06   0.00   0.46    0.35    0.28    0.09    0.02    0.00    0.00    0.00    0.00      0      0      0       0       1 18.43
 2020 174    69    23    9.0      2   0.15     65     15      0     35     80     80      0    0.0  0.000      0      0  0.521  0.681  0.000  0.000  0.000  0.000  0.000   4.34   0.00   0.00      0      0    231.8   0.07   0.00   0.47    0.35    0.30    0.10    0.03    0.00    0.00    0.00    0.00      0      0      0       0       1 16.44
 2020 175    70    24   10.0      3   0.18     80     15      0     40     95     95      0    0.0  0.000      0      0  0.452  0.635  0.000  0.000  0.000  0.000  0.000   4.07   0.00   0.00      0      0    220.9   0.08   0.00   0.49    0.35    0.34    0.13    0.05    0.00    0.00    0.00    0.00      0      0      0       0       1 16.02
 2020 176    71    25   10.0      3   0.20     96     15      0     43    111    111      0    0.0  0.000      0      0  0.600  0.734  0.000  0.000  0.000  0.000  0.000   4.32   0.00   0.00      0      0    212.1   0.09   0.00   0.52    0.35    0.36    0.14    0.07    0.01    0.00    0.00    0.00      0      0      0       0       1 21.10
 2020 177    72    26   10.0      3   0.23    112     16      0     46    127    127      0    0.0  0.000      0      0  0.661  0.774  0.000  0.000  0.000  0.000  0.000   4.34   0.00   0.00      0      0    203.6   0.10   0.00   0.54    0.35    0.38    0.16    0.08    0.01    0.00    0.00    0.00      0      0      0       0       2 21.41
 2020 178    73    27   11.0      3   0.25    127     17      0     49    144    144      0    0.0  0.000      0      0  0.698  0.799  0.000  0.000  0.000  0.000  0.000   4.33   0.00   0.00      0      0    195.5   0.11   0.00   0.56    0.34    0.39    0.17    0.09    0.02    0.00    0.00    0.00      0      0      0       0       2 21.48
 2020 179    74    28   11.0      3   0.26    140     18      0     52    157    157      0    0.0  0.000      0      0  0.748  0.833  0.000  0.000  0.000  0.000  0.000   4.24   0.00   0.00      0      0    187.8   0.12   0.00   0.57    0.34    0.41    0.18    0.10    0.02    0.00    0.00    0.00      0      0      0       0       2 18.77
 2020 180    75    29   12.0      3   0.28    154     19      0     53    173    173      0    0.0  0.000      0      0  0.771  0.848  0.000  0.000  0.000  0.000  0.000   4.36   0.00   0.00      0      0    180.5   0.12   0.00   0.59    0.34    0.42    0.19    0.11    0.02    0.00    0.00    0.00      0      0      0       0       2 19.08
 2020 181    76    30   12.0      3   0.29    166     21      0     54    187    187      0    0.0  0.000      0      0  0.826  0.884  0.000  0.000  0.000  0.000  0.000   4.45   0.00   0.00      0      0    173.3   0.13   0.00   0.60    0.34    0.42    0.19    0.11    0.02    0.00    0.00    0.00      0      0      0       0       3 20.88
 2020 182    77    31   12.0      3   0.30    178     23      0     56    201    201      0    0.0  0.000      0      0  0.819  0.880  0.000  0.000  0.000  0.000  0.000   4.20   0.00   0.00      0      0    166.7   0.13   0.00   0.61    0.34    0.43    0.20    0.12    0.03    0.00    0.00    0.00      0      0      0       0       3 18.17
 2020 183    78    32   13.0      3   0.31    190     26      0     57    217    217      0    0.0  0.000      0      0  0.787  0.859  0.000  0.000  0.000  0.000  0.000   4.05   0.00   0.00      0      0    160.9   0.14   0.00   0.63    0.34    0.44    0.20    0.12    0.03    0.01    0.00    0.00      0      0      0       0       3 17.40
 2020 184    79    33   13.0      3   0.31    202     30      0     58    232    232      0    0.0  0.000      0      0  0.798  0.866  0.000  0.000  0.000  0.000  0.000   3.94   0.00   0.00      0      0    155.4   0.14   0.00   0.64    0.33    0.44    0.20    0.12    0.03    0.01    0.00    0.00      0      0      0       0       3 19.11
 2020 185    80    34   14.0      3   0.32    214     34      0     59    249    249      0    0.0  0.000      0      0  0.790  0.861  0.000  0.000  0.000  0.000  0.000   3.90   0.00   0.00      0      0    150.3   0.14   0.00   0.65    0.33    0.44    0.21    0.13    0.03    0.01    0.00    0.00      0      0      0       0       4 16.94
 2020 186    81    35   14.0      3   0.33    228     40      0     60    268    268      0    0.0  0.000      0      0  0.767  0.845  0.000  0.000  0.000  0.000  0.000   3.80   0.00   0.00      0      0    145.9   0.15   0.00   0.65    0.33    0.45    0.21    0.13    0.03    0.01    0.00    0.00      0      0      0       0       4 16.75
 2020 187    82    36   14.0      3   0.34    241     46      0     61    287    287      0    0.0  0.000      0      0  0.653  0.769  0.000  0.000  0.000  0.000  0.000   3.56   0.00   0.00      0      0    142.3   0.15   0.00   0.66    0.33    0.45    0.22    0.14    0.03    0.01    0.00    0.00      0      0      0       0       4 16.30
 2020 188    83    37   15.0      3   0.35    252     52      0     62    304    304      0    0.0  0.000      0      0  0.808  0.872  0.000  0.000  0.000  0.000  0.000   3.71   0.00   0.00      0      0    137.7   0.16   0.00   0.67    0.32    0.46    0.22    0.14    0.03    0.01    0.00    0.00      0      0      0       0       4 16.15
 2020 189    84    38   15.0      3   0.35    261     57      0     62    318    318      0    0.0  0.000      0      0  0.864  0.910  0.000  0.000  0.000  0.000  0.000   3.75   0.00   0.00      0      0    132.7   0.16   0.00   0.67    0.32    0.46    0.22    0.14    0.03    0.01    0.00    0.00      0      0      0       0       5 18.37
 2020 190    85    39   15.0      3   0.34    266     61      0     63    327    327      0    0.0  0.000      0      0  0.909  0.940  0.000  0.000  0.000  0.000  0.000   3.72   0.00   0.00      0      0    127.3   0.16   0.00   0.68    0.32    0.46    0.22    0.14    0.03    0.01    0.00    0.00      0      0      0       0       5 20.24
 2020 191    86    40   16.0      3   0.39    299     88      0     66    387    387      0    0.0  0.000      0      0  0.347  0.565  0.000  0.000  0.000  0.000  0.000   3.14   0.00   0.00      0      0    129.2   0.17   0.00   0.69    0.32    0.47    0.23    0.16    0.04    0.02    0.00    0.00      0      0      0       0       5 19.10
 2020 192    87    41   16.0      3   0.43    329    114      0     68    443    443      0    0.0  0.000      0      0  0.167  0.445  0.000  0.000  0.000  0.000  0.000   2.88   0.00   0.00      0      0    130.9   0.19   0.00   0.70    0.32    0.48    0.24    0.17    0.05    0.02    0.00    0.00      0      0      0       0       5 18.85
 2020 193    88    42   17.0      3   0.49    371    146      0     72    517    517      0    0.0  0.000      0      0  0.388  0.592  0.000  0.000  0.000  0.000  0.000   3.03   0.00   0.00      0      0    131.3   0.22   0.00   0.71    0.33    0.50    0.25    0.19    0.05    0.03    0.00    0.00      0      0      0       0       6 18.27
 2020 194    89    43   17.0      3   0.53    402    198      0     76    600    600      0    0.0  0.000      0      0  0.284  0.523  0.000  0.000  0.000  0.000  0.000   2.88   0.00   0.00      0      0    131.2   0.24   0.00   0.71    0.34    0.51    0.27    0.20    0.06    0.03    0.00    0.00      0      0      0       0       6 18.19
 2020 195    90    44   17.0      3   0.56    430    260      0     81    690    690      0    0.0  0.000      0      0  0.353  0.569  0.000  0.000  0.000  0.000  0.000   2.89   0.00   0.00      0      0    130.2   0.25   0.00   0.72    0.34    0.53    0.28    0.22    0.07    0.04    0.00    0.00      0      0      0       0       6 17.20
 2020 196    91    45   18.0      3   0.60    457    327      0     86    784    785      0    0.0  0.000      1      0  0.100  0.401  0.000  0.000  0.000  0.000  0.000   2.70   0.00   0.00      0      1    130.7   0.27   0.00   0.73    0.35    0.55    0.30    0.24    0.08    0.05    0.00    0.00      0      0      0       0       7 17.95
 2020 197    92    46   18.0      3   0.64    487    413      0     92    900    902      0    0.0  0.000      2      0  0.000  0.254  0.000  0.000  0.000  0.000  0.000   2.63   0.00   0.00      0      2    131.8   0.29   0.00   0.74    0.37    0.57    0.32    0.27    0.10    0.05    0.00    0.00      0      0      0       0       7 15.55
 2020 198    93    47   18.0      3   0.68    518    507      0     99   1025   1030      0    0.0  0.000      5      0  0.158  0.439  0.000  0.000  0.000  0.000  0.000   2.66   0.00   0.01      0      5    131.6   0.31   0.00   0.75    0.38    0.59    0.34    0.30    0.11    0.07    0.00    0.00      0      0      0       0       8 17.35
 2020 199    94    48   19.0      3   0.71    542    590      0    104   1132   1141      0    0.0  0.000      9      0  0.271  0.514  0.000  0.000  0.000  0.000  0.000   2.66   0.00   0.01      0      9    130.4   0.32   0.00   0.76    0.39    0.60    0.36    0.32    0.12    0.08    0.00    0.00      0      0      0       0       8 19.77
 2020 200    95    49   19.0      3   0.74    568    680      0    111   1247   1261      0    0.0  0.000     14      0  0.128  0.419  0.000  0.000  0.000  0.000  0.000   2.56   0.00   0.01      0     14    130.2   0.33   0.00   0.77    0.40    0.62    0.38    0.35    0.14    0.09    0.00    0.00      0      0      0       0       9 20.26
 2020 201    96    50   20.0      3   0.78    598    787      0    118   1385   1408      0    0.0  0.000     23      0  0.000  0.215  0.000  0.000  0.000  0.000  0.000   2.50   0.00   0.02      0     23    130.8   0.35   0.00   0.78    0.41    0.64    0.41    0.39    0.16    0.10    0.00    0.00      0      0      0       0       9 16.25
 2020 202    97    51   20.0      3   0.83    634    914      0    128   1548   1595      0    0.0  0.000     47      0  0.031  0.354  0.000  0.000  0.000  0.000  0.000   2.50   0.00   0.03      0     47    131.2   0.37   0.00   0.79    0.42    0.65    0.44    0.43    0.19    0.12    0.00    0.00      0      0      0       0      10 16.50
 2020 203    98    52   20.0      3   0.86    663   1005      0    149   1667   1744      0    0.0  0.000     77      0  0.164  0.443  0.000  0.000  0.000  0.000  0.000   2.51   0.00   0.04      0     77    130.4   0.39   0.00   0.80    0.44    0.68    0.51    0.53    0.26    0.17    0.00    0.00      0      0      0       0      10 14.70
 2020 204    99    53   20.0      3   0.90    694   1099      0    157   1792   1905      0    0.0  0.000    112      0  0.241  0.494  0.000  0.000  0.000  0.000  0.000   2.51   0.00   0.06      0    112    129.2   0.40   0.00   0.81    0.44    0.68    0.54    0.57    0.29    0.20    0.00    0.00      0      0      0       0      11 17.85
 2020 205   100    54   20.0      3   0.90    713   1154      0    162   1868   2006      0    0.0  0.000    138      0  0.484  0.656  0.000  0.000  0.000  0.000  0.000   2.51   0.00   0.07      0    138    126.3   0.40   0.00   0.82    0.44    0.67    0.55    0.60    0.31    0.21    0.00    0.00      0      0      0       0      12 18.75
 2020 206   101    55   20.0      3   0.90    731   1196      0    166   1927   2096      0    0.0  0.000    168      0  0.580  0.720  0.000  0.000  0.000  0.000  0.000   2.51   0.00   0.08      0    168    122.8   0.40   0.00   0.83    0.44    0.67    0.56    0.62    0.33    0.22    0.00    0.00      0      0      0       0      13 19.68
 2020 207   102    56   20.0      3   0.89    746   1228      0    170   1974   2175      0    0.0  0.000    201      0  0.627  0.752  0.000  0.000  0.000  0.000  0.000   2.48   0.00   0.09      0    201    119.2   0.40   0.00   0.84    0.43    0.67    0.57    0.63    0.35    0.24    0.00    0.00      0      0      0       0      14 20.01
 2020 208   103    57   20.0      3   0.88    760   1257      0    173   2016   2243      0    0.0  0.000    227      0  0.580  0.720  0.000  0.000  0.000  0.000  0.000   2.43   0.00   0.10      0    227    116.1   0.40   0.00   0.85    0.43    0.67    0.57    0.64    0.37    0.26    0.00    0.00      0      0      0       0      14 19.34
 2020 209   104    58   20.0      3   0.91    779   1315      0    178   2094   2344      0    0.0  0.000    250      0  0.000  0.000  0.000  0.000  0.000  0.000  0.000   2.34   0.00   0.11      0    250    116.5   0.41   0.00   0.85    0.43    0.67    0.57    0.66    0.39    0.28    0.01    0.00      0      0      0       0      14 15.20
 2020 210   105    59   20.0      4   0.91    768   1350      0    181   2118   2433      0    0.0  0.000    315      0  0.000  0.000  0.000  0.000  0.000  0.000  0.000   2.31   0.00   0.13      0    315    118.3   0.41   0.00   0.86    0.43    0.67    0.56    0.67    0.40    0.31    0.01    0.00      0      0      0       0      14 14.60
 2020 211   106    60   20.0      4   0.91    755   1406      0    189   2161   2613      0    0.0  0.000    451      0  0.000  0.000  0.000  0.000  0.000  0.000  0.000   2.30   0.00   0.17      0    451    120.2   0.41   0.00   0.87    0.43    0.67    0.57    0.70    0.43    0.34    0.01    0.00      0      0      0       0      14 17.25
 2020 212   107    61   20.0      4   0.91    742   1451      0    195   2193   2772      0    0.0  0.000    579      0  0.000  0.000  0.000  0.000  0.000  0.000  0.000   2.27   0.00   0.21      0    579    122.4   0.41   0.00   0.88    0.44    0.67    0.57    0.73    0.46    0.38    0.01    0.00      0      0      0       0      14 12.95
 2020 213   108    62   20.0      4   0.91    728   1501      0    203   2229   2974      0    0.0  0.000    745      0  0.000  0.000  0.000  0.000  0.000  0.000  0.000   2.27   0.00   0.25      0    745    124.7   0.41   0.00   0.88    0.44    0.67    0.58    0.77    0.49    0.42    0.02    0.00      0      0      0       0      15 13.45
 2020 214   109    63   20.0      4   0.91    713   1545      0    212   2258   3175      0    0.0  0.000    917      0  0.000  0.000  0.000  0.000  0.000  0.000  0.000   2.24   0.00   0.29      0    917    127.3   0.41   0.00   0.89    0.44    0.67    0.59    0.80    0.52    0.46    0.02    0.00      0      0      0       0      16 14.20
 2020 215   110    64   20.0      4   0.91    698   1579      0    219   2277   3340      0    0.0  0.000   1063      0  0.000  0.000  0.000  0.000  0.000  0.000  0.000   2.22   0.00   0.32      0   1063    130.1   0.41   0.00   0.90    0.44    0.68    0.59    0.82    0.54    0.48    0.02    0.00      0      0      0       0      16 13.55
 2020 216   111    65   20.0      4   0.91    682   1609      0    225   2290   3496      0    0.0  0.000   1206      0  0.000  0.000  0.000  0.000  0.000  0.000  0.000   2.21   0.00   0.34      0   1206    133.2   0.41   0.00   0.91    0.45    0.69    0.60    0.85    0.56    0.51    0.02    0.00      0      0      0       0      16 12.20
 2020 217   112    66   20.0      4   0.91    665   1638      0    232   2303   3661      0    0.0  0.000   1358      0  0.000  0.000  0.000  0.000  0.000  0.000  0.000   2.20   0.00   0.37      0   1358    136.6   0.41   0.00   0.91    0.46    0.71    0.61    0.87    0.58    0.53    0.03    0.00      0      0      0       0      16 13.85
 2020 218   113    67   20.0      4   0.91    647   1669      0    240   2316   3847      0    0.0  0.000   1531      0  0.000  0.000  0.000  0.000  0.000  0.000  0.000   2.18   0.00   0.40      0   1531    140.3   0.41   0.00   0.92    0.48    0.73    0.62    0.90    0.60    0.56    0.03    0.00      0      0      0       0      16 13.50
 2020 219   114    68   20.0      4   0.91    629   1689      0    245   2318   3971      0    0.0  0.000   1654      0  0.000  0.000  0.000  0.000  0.000  0.000  0.000   2.18   0.00   0.42      0   1654    144.5   0.41   0.00   0.93    0.49    0.75    0.63    0.91    0.61    0.57    0.03    0.00      0      0      0       0      16 15.55
 2020 220   115    69   20.0      4   0.91    609   1718      0    252   2327   4159      0    0.0  0.000   1833      0  0.000  0.000  0.000  0.000  0.000  0.000  0.000   2.17   0.00   0.44      0   1833    149.1   0.41   0.00   0.94    0.51    0.77    0.65    0.94    0.62    0.59    0.03    0.00      0      0      0       0      16 17.90
 2020 221   116    70   20.0      5   0.91    609   1718    176    263   2327   4335   2001    8.8  0.041   2009      8  0.000  0.000  0.000  0.000  0.000  0.000  0.000   2.04   8.77   0.46      0   2009    149.1   0.41   0.00   0.95    0.54    0.81    0.68    0.97    0.65    0.62    0.03    0.00      0      0      0       0      16 17.03
 2020 222   117    71   20.0      5   0.91    609   1718    351    273   2327   4511   2001   17.5  0.078   2184      8  0.000  0.000  0.000  0.000  0.000  0.000  0.000   2.00  16.08   0.48      0   2184    149.1   0.41   0.00   0.96    0.58    0.85    0.70    1.00    0.67    0.65    0.04    0.00      0      0      0       0      18 18.91
 2020 223   118    72   20.0      5   0.91    609   1718    527    277   2327   4687   2001   26.3  0.113   2360      8  0.000  0.000  0.000  0.000  0.000  0.000  0.000   1.95  22.34   0.50      0   2360    149.1   0.41   0.00   0.97    0.60    0.86    0.70    1.01    0.67    0.66    0.04    0.00      0      0      0       0      19 16.95
 2020 224   119    73   20.0      5   0.91    609   1718    703    286   2327   4863   2001   35.1  0.145   2536      8  0.000  0.000  0.000  0.000  0.000  0.000  0.000   1.93  27.73   0.52      0   2536    149.1   0.41   0.00   0.97    0.63    0.88    0.73    1.03    0.69    0.68    0.04    0.00      0      0      0       0      21 15.05
 2020 225   120    74   20.0      5   0.91    609   1718    880    287   2327   5039   2001   43.9  0.175   2712      8  0.000  0.000  0.000  0.000  0.000  0.000  0.000   1.89  32.43   0.54      0   2712    149.1   0.41   0.00   0.98    0.64    0.89    0.73    1.03    0.69    0.69    0.04    0.00      0      0      0       0      22 16.40
 2020 226   121    75   20.0      5   0.91    609   1718   1056    293   2327   5215   2001   52.7  0.202   2888      8  0.000  0.000  0.000  0.000  0.000  0.000  0.000   1.86  36.55   0.55      0   2888    149.1   0.41   0.00   0.99    0.65    0.89    0.74    1.05    0.71    0.70    0.04    0.00      0      0      0       0      23 18.45
 2020 227   122    76   20.0      5   0.91    609   1713   1232    292   2322   5387   2001   61.5  0.229   3065      8  0.000  0.000  0.000  0.000  0.000  0.000  0.000   1.82  40.19   0.57      0   3065    149.1   0.41   0.00   0.99    0.65    0.89    0.74    1.05    0.71    0.70    0.04    0.00      0      0      0       0      25 17.25
 2020 228   123    77   20.0      5   0.91    609   1718   1408    293   2327   5567   2001   70.3  0.253   3241      8  0.000  0.000  0.000  0.000  0.000  0.000  0.000   1.79  43.44   0.58      0   3241    149.1   0.41   0.00   1.00    0.65    0.89    0.74    1.05    0.71    0.71    0.05    0.00      0      0      0       0      26 17.15
 2020 229   124    78   20.0      5   0.91    609   1718   1584    297   2327   5743   2001   79.1  0.276   3417      8  0.000  0.000  0.000  0.000  0.000  0.000  0.000   1.77  46.36   0.59      0   3417    149.1   0.41   0.00   1.01    0.66    0.89    0.74    1.05    0.72    0.73    0.05    0.00      0      0      0       0      28 17.15
 2020 230   125    79   20.0      5   0.91    609   1718   1760    308   2327   5920   2001   87.9  0.297   3593      8  0.000  0.000  0.000  0.000  0.000  0.000  0.000   1.75  48.99   0.61      0   3593    149.1   0.41   0.00   1.02    0.67    0.90    0.75    1.05    0.75    0.77    0.07    0.00      0      0      0       0      29 15.25
 2020 231   126    80   20.0      5   0.91    609   1718   1936    316   2327   6096   2001   96.7  0.318   3769      8  0.000  0.000  0.000  0.000  0.000  0.000  0.000   1.71  51.37   0.62      0   3769    149.1   0.41   0.00   1.03    0.68    0.91    0.75    1.05    0.75    0.79    0.09    0.00      0      0      0       0      31 15.90
 2020 232   127    81   20.0      5   0.91    609   1712   2112    315   2321   6266   2001  105.5  0.337   3945      8  0.000  0.000  0.000  0.000  0.000  0.000  0.000   1.67  53.54   0.63      0   3945    149.1   0.41   0.00   1.03    0.68    0.91    0.75    1.05    0.75    0.79    0.09    0.00      0      0      0       0      32 16.55
 2020 233   128    82   20.0      5   0.91    609   1718   2289    321   2327   6448   2001  114.3  0.355   4121      8  0.000  0.090  0.000  0.000  0.000  0.000  0.000   1.60  55.53   0.64      0   4121    149.1   0.41   0.00   1.04    0.67    0.91    0.75    1.05    0.75    0.79    0.10    0.00      0      0      0       0      34 15.35
 2020 234   129    83   20.0      5   0.91    609   1718   2465    321   2327   6624   2001  123.1  0.372   4297      8  0.000  0.238  0.000  0.000  0.000  0.000  0.000   1.53  57.35   0.65      0   4297    149.1   0.41   0.00   1.05    0.67    0.91    0.75    1.05    0.75    0.78    0.11    0.00      0      0      0       0      36 16.35
 2020 235   130    84   20.0      5   0.90    609   1718   2633    322   2327   6792   2001  131.5  0.388   4465      8  0.084  0.390  0.000  0.000  0.000  0.000  0.000   1.47  58.96   0.66      0   4465    148.5   0.41   0.00   1.05    0.67    0.91    0.75    1.04    0.75    0.78    0.11    0.00      0      0      0       0      37 16.65
 2020 236   131    85   20.0      5   0.90    609   1718   2809    325   2327   6968   2001  140.3  0.403   4642      8  0.000  0.000  0.000  0.000  0.000  0.000  0.000   1.39  60.51   0.67      0   4642    148.5   0.41   0.00   1.06    0.67    0.91    0.75    1.04    0.74    0.78    0.12    0.00      0      0      0       0      39 17.92
 2020 237   132    86   20.0      5   0.90    609   1718   2985    329   2327   7144   2001  149.1  0.418   4818      8  0.000  0.000  0.022  0.000  0.000  0.000  0.000   1.34  61.96   0.67      0   4818    148.1   0.41   0.00   1.07    0.68    0.91    0.75    1.04    0.74    0.78    0.13    0.00      0      0      0       0      40 17.64
 2020 238   133    87   20.0      5   0.90    609   1718   3161    331   2327   7320   2001  157.9  0.432   4994      8  0.000  0.000  0.033  0.000  0.000  0.000  0.000   1.29  63.30   0.68      0   4994    147.5   0.41   0.00   1.08    0.68    0.91    0.75    1.04    0.74    0.77    0.14    0.00      0      0      0       0      42 18.25
 2020 239   134    88   20.0      5   0.89    609   1718   3337    334   2327   7496   2001  166.7  0.445   5170      8  0.000  0.000  0.045  0.000  0.000  0.000  0.000   1.24  64.55   0.69      0   5170    146.6   0.41   0.00   1.09    0.68    0.92    0.75    1.03    0.74    0.77    0.14    0.00      0      0      0       0      44 16.08
 2020 240   135    89   20.0      5   0.89    609   1718   3513    335   2327   7673   2001  175.5  0.458   5346      8  0.000  0.000  0.056  0.000  0.000  0.000  0.000   1.20  65.72   0.70      0   5346    145.6   0.41   0.00   1.10    0.68    0.91    0.74    1.03    0.74    0.77    0.15    0.00      0      0      0       0      45 17.87
 2020 241   136    90   20.0      5   0.88    609   1718   3689    336   2327   7849   2001  184.3  0.470   5522      8  0.000  0.000  0.067  0.000  0.000  0.000  0.000   1.15  66.81   0.70      0   5522    144.4   0.41   0.00   1.11    0.68    0.91    0.74    1.03    0.73    0.76    0.15    0.00      0      0      0       0      47 18.16
 2020 242   137    91   20.0      5   0.87    609   1636   3865    334   2245   7943   2001  193.1  0.487   5698      8  0.000  0.000  0.082  0.000  0.000  0.000  0.000   1.13  67.84   0.72      0   5698    142.9   0.41   0.00   1.11    0.68    0.91    0.74    1.03    0.73    0.76    0.15    0.00      0      0      0       0      49 12.90
 2020 243   138    92   20.0      5   0.86    609   1618   4042    332   2227   8101   2001  201.9  0.499   5874      8  0.000  0.000  0.100  0.000  0.000  0.000  0.000   1.09  68.80   0.73      0   5874    141.1   0.41   0.00   1.11    0.68    0.91    0.74    1.03    0.73    0.76    0.15    0.00      0      0      0       0      50 16.65
 2020 244   139    93   20.0      5   0.85    609   1618   4218    331   2227   8277   2001  210.7  0.510   6050      8  0.000  0.000  0.100  0.000  0.000  0.000  0.000   1.07  69.71   0.73      0   6050    139.4   0.41   0.00   1.12    0.68    0.91    0.74    1.02    0.73    0.76    0.15    0.00      0      0      0       0      52 11.30
 2020 245   140    94   20.0      5   0.84    609   1550   4394    329   2159   8386   2001  219.5  0.524   6227      8  0.000  0.000  0.100  0.000  0.000  0.000  0.000   1.07  70.57   0.74      0   6227    137.6   0.41   0.00   1.12    0.68    0.91    0.74    1.02    0.73    0.76    0.15    0.00      0      0      0       0      54 12.50
 2020 246   141    95   20.0      5   0.83    609   1548   4570    327   2157   8560   2001  228.3  0.534   6403      8  0.000  0.000  0.110  0.000  0.000  0.000  0.000   1.03  71.38   0.75      0   6403    135.7   0.41   0.00   1.12    0.68    0.91    0.74    1.02    0.73    0.76    0.15    0.00      0      0      0       0      55 14.45
 2020 247   142    96   20.0      5   0.82    609   1546   4746    326   2155   8733   2001  237.1  0.543   6579      8  0.000  0.000  0.109  0.000  0.000  0.000  0.000   0.98  72.14   0.75      0   6579    133.9   0.41   0.00   1.12    0.68    0.91    0.74    1.02    0.73    0.76    0.15    0.00      0      0      0       0      57 11.75
 2020 248   143    97   20.0      5   0.80    609   1533   4922    324   2142   8897   2001  245.9  0.553   6755      8  0.000  0.000  0.128  0.000  0.000  0.000  0.000   0.95  72.87   0.76      0   6755    131.7   0.41   0.00   1.12    0.68    0.91    0.74    1.02    0.73    0.76    0.15    0.00      0      0      0       0      59 11.90
 2020 249   144    98   20.0      5   0.79    609   1508   5098    323   2117   9049   2001  254.7  0.563   6931      8  0.000  0.000  0.143  0.000  0.000  0.000  0.000   0.91  73.56   0.77      0   6931    129.4   0.41   0.00   1.12    0.68    0.91    0.74    1.02    0.73    0.76    0.15    0.00      0      0      0       0      60 16.75
 2020 250   145    99   20.0      5   0.77    609   1484   5257    321   2093   9183   2001  262.7  0.572   7090      8  0.000  0.000  0.154  0.000  0.000  0.000  0.000   0.89  74.15   0.77      0   7090    126.9   0.41   0.00   1.12    0.68    0.91    0.74    1.02    0.73    0.76    0.15    0.00      0      0      0       0      62 19.50
[...]
 2020 220   115    69   20.0      4   1.85   2770   3510      0   2637   6280   8091      0    0.0  0.000   1810      0  0.000  0.000  0.187  0.000  0.000  0.000  0.000   1.20   0.00   0.22      0   1810     66.8   1.30   0.00   1.00    4.00    4.00    4.00    4.00    3.95    3.95    1.15    0.00      0      0      0       0     437 17.90
 2020 221   116    70   20.0      5   1.81   2770   3510    229   2640   6280   8320   1939   11.8  0.028   2040      8  0.000  0.000  0.182  0.000  0.000  0.000  0.000   1.17  11.24   0.25      0   2040     65.3   1.30   0.00   1.01    4.00    4.00    4.00    4.00    3.96    3.96    1.15    0.00      0      0      0       0     450 17.03
 2020 222   117    71   20.0      5   1.77   2770   3510    399   2654   6280   8489   1939   20.6  0.047   2209      8  0.000  0.000  0.193  0.000  0.000  0.000  0.000   1.16  18.05   0.26      0   2209     63.7   1.30   0.00   1.02    4.00    4.00    4.00    4.00    3.99    3.99    1.15    0.00      0      0      0       0     463 18.91
 2020 223   118    72   20.0      5   1.72   2770   3510    569   2659   6280   8660   1939   29.4  0.066   2380      8  0.000  0.000  0.193  0.000  0.000  0.000  0.000   1.14  23.93   0.27      0   2380     62.2   1.30   0.00   1.03    4.00    4.00    4.00    4.00    4.00    4.00    1.14    0.00      0      0      0       0     476 16.95
 2020 224   119    73   20.0      5   1.68   2770   3510    740   2670   6280   8831   1939   38.2  0.084   2550      8  0.000  0.000  0.193  0.000  0.000  0.000  0.000   1.13  29.02   0.29      0   2550     60.7   1.30   0.00   1.04    4.00    4.00    4.00    4.00    4.00    4.00    1.14    0.00      0      0      0       0     490 15.05
 2020 225   120    74   20.0      5   1.64   2770   3510    911   2672   6280   9001   1939   47.0  0.101   2721      8  0.000  0.000  0.194  0.000  0.000  0.000  0.000   1.11  33.47   0.30      0   2721     59.2   1.30   0.00   1.05    4.00    4.00    4.00    4.00    4.00    4.00    1.14    0.00      0      0      0       0     503 16.40
 2020 226   121    75   20.0      5   1.60   2770   3510   1081   2677   6280   9172   1939   55.8  0.118   2892      8  0.000  0.000  0.195  0.000  0.000  0.000  0.000   1.08  37.39   0.32      0   2892     57.8   1.30   0.00   1.06    4.00    4.00    4.00    4.00    4.00    4.00    1.14    0.00      0      0      0       0     516 18.45
 2020 227   122    76   20.0      5   1.56   2770   3510   1252   2671   6280   9343   1939   64.6  0.134   3062      8  0.000  0.000  0.198  0.000  0.000  0.000  0.000   1.06  40.88   0.33      0   3062     56.3   1.30   0.00   1.07    4.00    4.00    4.00    4.00    3.99    3.99    1.13    0.00      0      0      0       0     530 17.25
 2020 228   123    77   20.0      5   1.52   2770   3510   1423   2669   6280   9513   1939   73.4  0.150   3233      8  0.000  0.000  0.199  0.000  0.000  0.000  0.000   1.05  44.00   0.34      0   3233     54.9   1.30   0.00   1.07    4.00    4.00    4.00    4.00    3.99    3.99    1.13    0.00      0      0      0       0     543 17.15
 2020 229   124    78   20.0      5   1.48   2770   3510   1593   2669   6280   9684   1939   82.2  0.165   3404      8  0.000  0.000  0.198  0.000  0.000  0.000  0.000   1.04  46.81   0.35      0   3404     53.6   1.30   0.00   1.08    4.00    4.00    4.00    4.00    3.99    3.99    1.13    0.00      0      0      0       0     557 17.15
 2020 230   125    79   20.0      5   1.45   2770   3510   1764   2677   6280   9854   1939   91.0  0.179   3574      8  0.000  0.000  0.199  0.000  0.000  0.000  0.000   1.02  49.35   0.36      0   3574     52.2   1.30   0.00   1.09    4.00    4.00    4.00    4.00    4.00    4.00    1.13    0.00      0      0      0       0     570 15.25
 2020 231   126    80   20.0      5   1.41   2770   3510   1934   2681   6280  10025   1939   99.8  0.193   3745      8  0.000  0.000  0.199  0.000  0.000  0.000  0.000   1.01  51.66   0.37      0   3745     50.9   1.30   0.00   1.10    4.00    4.00    4.00    4.00    4.00    4.00    1.12    0.00      0      0      0       0     583 15.90
 2020 232   127    81   20.0      5   1.38   2770   3510   2105   2671   6280  10196   1939  108.6  0.206   3915      8  0.000  0.000  0.202  0.000  0.000  0.000  0.000   0.99  53.76   0.38      0   3915     49.7   1.30   0.00   1.11    4.00    4.00    3.99    3.99    3.98    3.98    1.12    0.00      0      0      0       0     597 16.55
 2020 233   128    82   20.0      5   1.34   2770   3510   2276   2670   6280  10366   1939  117.4  0.220   4086      8  0.000  0.000  0.206  0.000  0.000  0.000  0.000   0.98  55.69   0.39      0   4086     48.4   1.30   0.00   1.12    4.00    4.00    4.00    4.00    3.98    3.98    1.12    0.00      0      0      0       0     610 15.35
 2020 234   129    83   20.0      5   1.31   2770   3510   2446   2662   6280  10537   1939  126.2  0.232   4257      8  0.000  0.000  0.211  0.000  0.000  0.000  0.000   0.96  57.47   0.40      0   4257     47.2   1.30   0.00   1.13    4.00    4.00    3.99    3.99    3.97    3.97    1.11    0.00      0      0      0       0     623 16.35
 2020 235   130    84   20.0      5   1.27   2770   3510   2617   2655   6280  10708   1939  135.0  0.244   4427      8  0.000  0.000  0.216  0.000  0.000  0.000  0.000   0.94  59.11   0.41      0   4427     46.0   1.30   0.00   1.13    4.00    4.00    3.99    3.99    3.96    3.96    1.11    0.00      0      0      0       0     637 16.65
 2020 236   131    85   20.0      5   1.24   2770   3510   2788   2646   6280  10878   1939  143.8  0.256   4598      8  0.000  0.000  0.220  0.000  0.000  0.000  0.000   0.93  60.63   0.42      0   4598     44.8   1.30   0.00   1.14    4.00    4.00    3.98    3.98    3.95    3.95    1.10    0.00      0      0      0       0     650 17.92
 2020 237   132    86   20.0      5   1.21   2770   3510   2958   2640   6280  11049   1939  152.6  0.268   4769      8  0.000  0.000  0.226  0.000  0.000  0.000  0.000   0.91  62.03   0.43      0   4769     43.6   1.30   0.00   1.15    3.98    4.00    3.98    3.98    3.94    3.94    1.10    0.00      0      0      0       0     663 17.64
 2020 238   133    87   20.0      5   1.18   2770   3510   3129   2631   6280  11219   1939  161.4  0.279   4939      8  0.000  0.000  0.232  0.000  0.000  0.000  0.000   0.89  63.35   0.44      0   4939     42.5   1.30   0.00   1.16    3.96    4.00    3.97    3.97    3.93    3.93    1.09    0.00      0      0      0       0     676 18.25
 2020 239   134    88   20.0      5   1.15   2770   3510   3299   2622   6280  11390   1939  170.2  0.290   5110      8  0.000  0.000  0.240  0.000  0.000  0.000  0.000   0.88  64.57   0.45      0   5110     41.3   1.30   0.00   1.17    3.94    4.00    3.96    3.96    3.92    3.92    1.09    0.00      0      0      0       0     690 16.08
 2020 240   135    89   20.0      5   1.11   2770   3510   3470   2611   6280  11561   1939  179.0  0.300   5280      8  0.000  0.000  0.246  0.000  0.000  0.000  0.000   0.86  65.71   0.46      0   5280     40.2   1.30   0.00   1.18    3.92    3.99    3.95    3.95    3.90    3.90    1.08    0.00      0      0      0       0     703 17.87
 2020 241   136    90   20.0      5   1.08   2770   3510   3641   2599   6280  11731   1939  187.8  0.310   5451      8  0.000  0.000  0.254  0.000  0.000  0.000  0.000   0.84  66.79   0.46      0   5451     39.1   1.30   0.00   1.19    3.90    3.98    3.93    3.93    3.88    3.88    1.08    0.00      0      0      0       0     716 18.16
 2020 242   137    91   20.0      5   1.05   2770   3427   3811   2586   6197  11819   1939  196.6  0.322   5622      8  0.000  0.000  0.266  0.000  0.000  0.000  0.000   0.83  67.80   0.48      0   5622     38.0   1.30   0.00   1.19    3.90    3.98    3.93    3.93    3.88    3.88    1.08    0.00      0      0      0       0     729 12.90
 2020 243   138    92   20.0      5   1.02   2770   3402   3982   2573   6172  11964   1939  205.4  0.333   5792      8  0.000  0.000  0.282  0.000  0.000  0.000  0.000   0.82  68.74   0.48      0   5792     37.0   1.30   0.00   1.19    3.90    3.98    3.93    3.93    3.88    3.88    1.08    0.00      0      0      0       0     742 16.65
 2020 244   139    93   20.0      5   0.99   2770   3391   4153   2560   6161  12124   1939  214.2  0.343   5963      8  0.000  0.000  0.286  0.000  0.000  0.000  0.000   0.81  69.64   0.49      0   5963     35.9   1.30   0.00   1.19    3.90    3.98    3.93    3.93    3.88    3.88    1.08    0.00      0      0      0       0     755 11.30
 2020 245   140    94   20.0      5   0.97   2770   3317   4323   2548   6087  12220   1939  223.0  0.354   6134      8  0.000  0.000  0.287  0.000  0.000  0.000  0.000   0.81  70.48   0.50      0   6134     34.9   1.30   0.00   1.19    3.90    3.98    3.93    3.93    3.88    3.88    1.08    0.00      0      0      0       0     767 12.50
 2020 246   141    95   20.0      5   0.94   2770   3301   4494   2535   6071  12375   1939  231.8  0.363   6304      8  0.000  0.000  0.289  0.000  0.000  0.000  0.000   0.80  71.28   0.51      0   6304     33.9   1.30   0.00   1.19    3.90    3.98    3.93    3.93    3.88    3.88    1.08    0.00      0      0      0       0     780 14.45
 2020 247   142    96   20.0      5   0.91   2770   3283   4664   2522   6054  12528   1939  240.6  0.372   6475      8  0.000  0.000  0.284  0.000  0.000  0.000  0.000   0.78  72.04   0.52      0   6475     32.9   1.30   0.00   1.19    3.90    3.98    3.93    3.93    3.88    3.88    1.08    0.00      0      0      0       0     793 11.75
 2020 248   143    97   20.0      5   0.89   2770   3257   4835   2510   6027  12672   1939  249.4  0.382   6645      8  0.000  0.000  0.295  0.000  0.000  0.000  0.000   0.77  72.76   0.52      0   6645     32.0   1.30   0.00   1.19    3.90    3.98    3.93    3.93    3.88    3.88    1.08    0.00      0      0      0       0     805 11.90
 2020 249   144    98   20.0      5   0.86   2770   3219   5006   2497   5990  12806   1939  258.2  0.391   6816      8  0.000  0.000  0.301  0.000  0.000  0.000  0.000   0.76  73.44   0.53      0   6816     31.0   1.30   0.00   1.19    3.90    3.98    3.93    3.93    3.88    3.88    1.08    0.00      0      0      0       0     818 16.75
 2020 250   145    99   20.0      5   0.83   2770   3184   5159   2485   5954  12924   1939  266.1  0.399   6970      8  0.000  0.000  0.305  0.000  0.000  0.000  0.000   0.75  74.02   0.54      0   6970     30.1   1.30   0.00   1.19    3.90    3.98    3.93    3.93    3.88    3.88    1.08    0.00      0      0      0       0     830 19.50
 2020 251   146   100   20.0      5   0.81   2770   3128   5330   2472   5898  13038   1939  274.9  0.409   7140      8  0.000  0.000  0.305  0.000  0.000  0.000  0.000   0.75  74.64   0.55      0   7140     29.2   1.30   0.00   1.19    3.90    3.98    3.93    3.93    3.88    3.88    1.08    0.00      0      0      0       0     843 16.00
 2020 252   147   101   20.0      5   0.73   2770   3082   5393   2460   5852  13056   1939  278.2  0.413   7204      8  0.000  0.000  0.318  0.000  0.000  0.000  0.000   0.76  74.87   0.55      0   7204     26.2   1.30   0.00   1.19    3.90    3.98    3.93    3.93    3.88    3.88    1.08    0.00      0      0      0       0     855  2.85
 2020 253   148   102   20.0      5   0.59   2770   3019   5457   2447   5789  13056   1939  281.4  0.418   7267      8  0.000  0.000  0.299  0.000  0.000  0.000  0.000   0.77  75.09   0.56      0   7267     21.4   1.30   0.00   1.19    3.90    3.98    3.93    3.93    3.88    3.88    1.08    0.00      0      0      0       0     867  0.00
 2020 254   149   103   20.0      5   0.58   2770   2992   5510   2435   5762  13083   1939  284.2  0.421   7321      8  0.000  0.000  0.285  0.000  0.000  0.000  0.000   0.77  75.27   0.56      0   7321     20.8   1.30   0.00   1.19    3.90    3.98    3.93    3.93    3.88    3.88    1.08    0.00      0      0      0       0     880  1.73
 2020 255   150   104   20.0      5   0.56   2770   2924   5672   2423   5694  13176   1939  292.5  0.430   7482      8  0.000  0.000  0.268  0.000  0.000  0.000  0.000   0.76  75.80   0.57      0   7482     20.2   1.30   0.00   1.19    3.90    3.98    3.93    3.93    3.88    3.88    1.08    0.00      0      0      0       0     892  7.45
 2020 256   151   105   20.0      5   0.54   2770   2848   5843   2411   5618  13271   1939  301.3  0.440   7653      8  0.000  0.000  0.291  0.000  0.000  0.000  0.000   0.74  76.34   0.58      0   7653     19.6   1.30   0.00   1.19    3.90    3.98    3.93    3.93    3.88    3.88    1.08    0.00      0      0      0       0     904 10.70
 2020 257   152   106   20.0      5   0.53   2770   2767   6013   2399   5538  13361   1939  310.1  0.450   7824      8  0.000  0.000  0.305  0.000  0.000  0.000  0.000   0.74  76.86   0.59      0   7824     19.0   1.30   0.00   1.19    3.90    3.98    3.93    3.93    3.88    3.88    1.08    0.00      0      0      0       0     916  9.73
 2020 258   153   107   20.0      5   0.51   2770   2672   6184   2387   5442  13436   1939  318.9  0.460   7994      8  0.000  0.000  0.312  0.000  0.000  0.000  0.000   0.73  77.35   0.59      0   7994     18.5   1.30   0.00   1.19    3.90    3.98    3.93    3.93    3.88    3.88    1.08    0.00      0      0      0       0     928  9.60
 2020 259   154   108   20.0      5   0.50   2770   2577   6354   2375   5347  13512   1939  327.7  0.470   8165      8  0.000  0.000  0.318  0.000  0.000  0.000  0.000   0.73  77.83   0.60      0   8165     17.9   1.30   0.00   1.19    3.90    3.98    3.93    3.93    3.88    3.88    1.08    0.00      0      0      0       0     940 10.40
 2020 260   155   109   20.0      5   0.48   2770   2478   6525   2363   5248  13583   1939  336.5  0.480   8335      8  0.000  0.000  0.317  0.000  0.000  0.000  0.000   0.73  78.28   0.61      0   8335     17.4   1.30   0.00   1.19    3.90    3.98    3.93    3.93    3.88    3.88    1.08    0.00      0      0      0       0     952  9.60
 2020 261   156   110   20.0      5   0.47   2770   2375   6696   2351   5145  13651   1939  345.3  0.490   8506      8  0.000  0.000  0.313  0.000  0.000  0.000  0.000   0.73  78.72   0.62      0   8506     16.9   1.30   0.00   1.19    3.90    3.98    3.93    3.93    3.88    3.88    1.08    0.00      0      0      0       0     964  9.50
 2020 262   157   111   20.0      5   0.45   2770   2266   6866   2339   5036  13713   1939  354.1  0.501   8677      8  0.000  0.000  0.308  0.000  0.000  0.000  0.000   0.72  79.13   0.63      0   8677     16.4   1.30   0.00   1.19    3.90    3.98    3.93    3.93    3.88    3.88    1.08    0.00      0      0      0       0     975 10.35
 2020 263   158   112   20.0      5   0.44   2770   2157   7037   2328   4928  13775   1939  362.9  0.511   8847      8  0.000  0.000  0.304  0.000  0.000  0.000  0.000   0.72  79.54   0.64      0   8847     15.9   1.30   0.00   1.19    3.90    3.98    3.93    3.93    3.88    3.88    1.08    0.00      0      0      0       0     987 10.90
 2020 264   159   113   20.0      5   0.43   2770   2051   7208   2316   4822  13839   1939  371.7  0.521   9018      8  0.000  0.000  0.298  0.000  0.000  0.000  0.000   0.72  79.92   0.65      0   9018     15.4   1.30   0.00   1.19    3.90    3.98    3.93    3.93    3.88    3.88    1.08    0.00      0      0      0       0     999 14.45
 2020 265   160   114   20.0      5   0.41   2770   1944   7378   2305   4714  13903   1939  380.5  0.531   9189      8  0.000  0.000  0.295  0.000  0.000  0.000  0.000   0.71  80.30   0.66      0   9189     15.0   1.30   0.00   1.19    3.90    3.98    3.93    3.93    3.88    3.88    1.08    0.00      0      0      0       0    1010 11.95
 2020 266   161   115   20.0      5   0.40   2770   1837   7549   2293   4607  13966   1939  389.3  0.541   9359      8  0.000  0.000  0.294  0.000  0.000  0.000  0.000   0.71  80.66   0.67      0   9359     14.5   1.30   0.00   1.19    3.90    3.98    3.93    3.93    3.88    3.88    1.08    0.00      0      0      0       0    1022 11.25
 2020 267   162   116   20.0      5   0.39   2770   1724   7719   2282   4494  14024   1939  398.1  0.550   9530      8  0.000  0.000  0.291  0.000  0.000  0.000  0.000   0.71  81.00   0.68      0   9530     14.1   1.30   0.00   1.19    3.90    3.98    3.93    3.93    3.88    3.88    1.08    0.00      0      0      0       0    1033 13.10
 2020 268   163   117   20.0      5   0.38   2770   1627   7890   2270   4397  14098   1939  406.9  0.560   9700      8  0.000  0.000  0.287  0.000  0.000  0.000  0.000   0.70  81.34   0.69      0   9700     13.7   1.30   0.00   1.19    3.90    3.98    3.93    3.93    3.88    3.88    1.08    0.00      0      0      0       0    1045 14.56
 2020 269   164   118   20.0      5   0.37   2770   1604   7950   2259   4374  14134   1939  410.0  0.562   9760      8  0.000  0.000  0.281  0.000  0.000  0.000  0.000   0.71  81.45   0.69      0   9760     13.3   1.30   0.00   1.19    3.90    3.98    3.93    3.93    3.88    3.88    1.08    0.00      0      0      0       0    1056 15.25
 2020 270   165   119   20.0      5   0.36   2770   1604   8005   2248   4374  14189   1939  412.9  0.564   9816      8  0.000  0.000  0.222  0.000  0.000  0.000  0.000   0.71  81.56   0.69      0   9816     13.0   1.30   0.00   1.19    3.90    3.98    3.93    3.93    3.88    3.88    1.08    0.00      0      0      0       0    1067 14.70
 2020 271   166   120   20.0      5   0.36   2770   1604   8005   2248   4374  14189   1939  412.9  0.564   9816      8  0.000  0.000  0.197  0.000  0.000  0.000  0.000   0.71  81.56   0.69      0   9816     13.0   1.30   0.00   1.19    3.90    3.98    3.93    3.93    3.88    3.88    1.08    0.00      0      0      0       0    1067  9.10
 2020 272   167   121   20.0      5   0.36   2770   1604   8005   2248   4374  14189   1939  412.9  0.564   9816      8  0.000  0.000  0.197  0.000  0.000  0.000  0.000   0.71  81.56   0.69      0   9816     13.0   1.30   0.00   1.19    3.90    3.98    3.93    3.93    3.88    3.88    1.08    0.00      0      0      0       0    1067  4.82
 2020 273   168   122   20.0      5   0.36   2770   1604   8005   2248   4374  14189   1939  412.9  0.564   9816      8  0.000  0.000  0.197  0.000  0.000  0.000  0.000   0.71  81.56   0.69      0   9816     13.0   1.30   0.00   1.19    3.90    3.98    3.93    3.93    3.88    3.88    1.08    0.00      0      0      0       0    1067  8.98
 2020 274   169   123   20.0      5   0.36   2770   1604   8005   2248   4374  14189   1939  412.9  0.564   9816      8  0.000  0.000  0.197  0.000  0.000  0.000  0.000   0.71  81.56   0.69      0   9816     13.0   1.30   0.00   1.19    3.90    3.98    3.93    3.93    3.88    3.88    1.08    0.00      0      0      0       0    1067  8.37
 2020 275   170   124   20.0      5   0.36   2770   1604   8005   2248   4374  14189   1939  412.9  0.564   9816      8  0.000  0.000  0.197  0.000  0.000  0.000  0.000   0.71  81.56   0.69      0   9816     13.0   1.30   0.00   1.19    3.90    3.98    3.93    3.93    3.88    3.88    1.08    0.00      0      0      0       0    1067  4.85
 2020 276   171   125   20.0      5   0.36   2770   1604   8005   2248   4374  14189   1939  412.9  0.564   9816      8  0.000  0.000  0.197  0.000  0.000  0.000  0.000   0.71  81.56   0.69      0   9816     13.0   1.30   0.00   1.19    3.90    3.98    3.93    3.93    3.88    3.88    1.08    0.00      0      0      0       0    1067  7.79
 2020 277   172   126   20.0      5   0.36   2770   1604   8005   2248   4374  14189   1939  412.9  0.564   9816      8  0.000  0.000  0.197  0.000  0.000  0.000  0.000   0.71  81.56   0.69      0   9816     13.0   1.30   0.00   1.19    3.90    3.98    3.93    3.93    3.88    3.88    1.08    0.00      0      0      0       0    1067  0.00
