*GROWTH ASPECTS OUTPUT FILE

*DSSAT Cropping System Model Ver. 4.7.5.035 -develop  JUN 14, 2021 09:08:55

*RUN   1        : 20 IRRIG, PETPEN NO KCB.. MZCER047 KSRT2001    1
 MODEL          : MZCER047 - Maize
 EXPERIMENT     : KSRT2001 SB ARM 2020 KS, IRRIGATED
 DATA PATH      :
 TREATMENT  1   : 20 IRRIG, PETPEN NO KCB.. MZCER047
  
!                                                                                                                                                                                                                                      Root Dens. (cm/cm3) by soil depth (cm):
!                                                                                                                                                                                                                                      0-5    5-15   15-29   29-43   43-53   53-64  64-132 132-201
@YEAR DOY   DAS   DAP   L#SD   GSTD   LAID   LWAD   SWAD   GWAD   RWAD   VWAD   CWAD   G#AD   GWGD   HIAD   PWAD   P#AD   WSPD   WSGD   NSTD   EWSD  PST1A  PST2A   KSTD   LN%D   SH%D   HIPD   PWDD   PWTD     SLAD   CHTD   CWID   RDPD    RL1D    RL2D    RL3D    RL4D    RL5D    RL6D    RL7D    RL8D   CDAD   LDAD   SDAD   SNW0C   SNW1C  DTTD
 2020 151    46     0    0.0      0   0.00      0      0      0      0      0      0      0    0.0  0.000      0      0  0.000  0.000  0.000  0.000  0.000  0.000  0.000   0.00   0.00   0.00      0      0      0.0   0.00   0.00   0.05    0.00    0.00    0.00    0.00    0.00    0.00    0.00    0.00      0      0      0       0       0 20.06
 2020 152    47     1    0.0      0   0.00      0      0      0      0      0      0      0    0.0  0.000      0      0  0.000  0.000  0.000  0.000  0.000  0.000  0.000   0.00   0.00   0.00      0      0      0.0   0.00   0.00   0.08    0.00    0.00    0.00    0.00    0.00    0.00    0.00    0.00      0      0      0       0       0 20.09
 2020 153    48     2    0.0      0   0.00      0      0      0      0      0      0      0    0.0  0.000      0      0  0.000  0.000  0.000  0.000  0.000  0.000  0.000   0.00   0.00   0.00      0      0      0.0   0.00   0.00   0.11    0.00    0.00    0.00    0.00    0.00    0.00    0.00    0.00      0      0      0       0       0 20.05
 2020 154    49     3    0.0      0   0.00      0      0      0      0      0      0      0    0.0  0.000      0      0  0.000  0.000  0.000  0.000  0.000  0.000  0.000   0.00   0.00   0.00      0      0      0.0   0.00   0.00   0.14    0.00    0.00    0.00    0.00    0.00    0.00    0.00    0.00      0      0      0       0       0 21.04
 2020 155    50     4    0.0      0   0.00      0      0      0      0      0      0      0    0.0  0.000      0      0  0.000  0.000  0.000  0.000  0.000  0.000  0.000   0.00   0.00   0.00      0      0      0.0   0.00   0.00   0.17    0.00    0.00    0.00    0.00    0.00    0.00    0.00    0.00      0      0      0       0       0 20.80
 2020 156    51     5    2.0      1   0.00     15     15      0     15     30     30      0    0.0  0.000      0      0  0.000  0.000  0.012  0.000  0.000  0.000  0.000   4.40   0.00   0.00      0      0     30.6   0.00   0.00   0.19    0.30    0.15    0.02    0.00    0.00    0.00    0.00    0.00      0      0      0       0       0 20.17
 2020 157    52     6    2.0      1   0.01     15     15      0     16     30     30      0    0.0  0.000      0      0  0.000  0.000  0.010  0.000  0.000  0.000  0.000   4.40   0.00   0.00      0      0     64.0   0.00   0.00   0.20    0.30    0.16    0.02    0.00    0.00    0.00    0.00    0.00      0      0      0       0       0 21.65
 2020 158    53     7    3.0      1   0.02     15     15      0     18     30     30      0    0.0  0.000      0      0  0.000  0.000  0.001  0.000  0.000  0.000  0.000   4.40   0.00   0.00      0      0    102.8   0.01   0.00   0.22    0.31    0.18    0.02    0.00    0.00    0.00    0.00    0.00      0      0      0       0       0 21.85
 2020 159    54     8    3.0      1   0.02     15     15      0     20     30     30      0    0.0  0.000      0      0  0.000  0.000  0.000  0.000  0.000  0.000  0.000   4.40   0.00   0.00      0      0    147.5   0.01   0.00   0.24    0.33    0.21    0.03    0.00    0.00    0.00    0.00    0.00      0      0      0       0       0 22.57
 2020 160    55     9    4.0      1   0.05     15     15      0     24     30     30      0    0.0  0.000      0      0  0.000  0.000  0.000  0.000  0.000  0.000  0.000   4.40   0.00   0.00      0      0    307.6   0.02   0.00   0.25    0.36    0.25    0.05    0.00    0.00    0.00    0.00    0.00      0      0      0       0       0 22.32
 2020 161    56    10    4.0      1   0.06     17     15      0     25     32     32      0    0.0  0.000      0      0  0.000  0.000  0.000  0.000  0.000  0.000  0.000   4.15   0.00   0.00      0      0    335.4   0.03   0.00   0.26    0.37    0.25    0.05    0.00    0.00    0.00    0.00    0.00      0      0      0       0       0  9.40
 2020 162    57    11    4.0      1   0.07     23     15      0     32     38     38      0    0.0  0.000      0      0  0.000  0.000  0.000  0.000  0.000  0.000  0.000   3.55   0.00   0.00      0      0    315.6   0.03   0.00   0.27    0.44    0.32    0.08    0.00    0.00    0.00    0.00    0.00      0      0      0       0       0 12.21
 2020 163    58    12    5.0      1   0.10     34     15      0     40     49     49      0    0.0  0.000      0      0  0.000  0.000  0.000  0.000  0.000  0.000  0.000   3.21   0.00   0.00      0      0    291.0   0.04   0.00   0.28    0.51    0.38    0.12    0.00    0.00    0.00    0.00    0.00      0      0      0       0       0 18.70
 2020 164    59    13    5.0      1   0.13     49     15      0     50     64     64      0    0.0  0.000      0      0  0.000  0.000  0.000  0.000  0.000  0.000  0.000   3.14   0.00   0.00      0      0    270.2   0.06   0.00   0.30    0.61    0.46    0.16    0.00    0.00    0.00    0.00    0.00      0      0      0       0       0 20.33
 2020 165    60    14    6.0      1   0.17     67     15      0     64     82     82      0    0.0  0.000      0      0  0.000  0.000  0.000  0.000  0.000  0.000  0.000   3.17   0.00   0.00      0      0    253.7   0.08   0.00   0.31    0.75    0.57    0.23    0.00    0.00    0.00    0.00    0.00      0      0      0       0       1 20.05
 2020 166    61    15    6.0      1   0.21     89     15      0     74    104    104      0    0.0  0.000      0      0  0.000  0.000  0.000  0.000  0.000  0.000  0.000   3.12   0.00   0.00      0      0    239.1   0.10   0.00   0.31    0.86    0.65    0.27    0.01    0.00    0.00    0.00    0.00      0      0      0       0       1 21.18
 2020 167    62    16    7.0      1   0.26    116     15      0     96    131    131      0    0.0  0.000      0      0  0.000  0.000  0.000  0.000  0.000  0.000  0.000   3.10   0.00   0.00      0      0    226.3   0.12   0.00   0.33    1.01    0.84    0.38    0.01    0.00    0.00    0.00    0.00      0      0      0       0       1 21.41
 2020 168    63    17    7.0      2   0.32    140     15      0    127    155    155      0    0.0  0.000      0      0  0.000  0.000  0.000  0.000  0.000  0.000  0.000   3.26   0.00   0.00      0      0    232.5   0.15   0.00   0.34    1.26    1.09    0.53    0.03    0.00    0.00    0.00    0.00      0      0      0       0       2 20.62
 2020 169    64    18    7.0      2   0.40    181     15      0    156    197    197      0    0.0  0.000      0      0  0.000  0.000  0.006  0.000  0.000  0.000  0.000   3.07   0.00   0.00      0      0    220.2   0.18   0.00   0.36    1.51    1.31    0.66    0.05    0.00    0.00    0.00    0.00      0      0      0       0       3 22.19
 2020 170    65    19    8.0      2   0.47    222     15      0    198    237    237      0    0.0  0.000      0      0  0.000  0.000  0.000  0.000  0.000  0.000  0.000   3.19   0.00   0.00      0      0    211.1   0.21   0.00   0.37    1.88    1.63    0.86    0.08    0.00    0.00    0.00    0.00      0      0      0       0       3 18.44
 2020 171    66    20    8.0      2   0.52    250     15      0    220    266    266      0    0.0  0.000      0      0  0.000  0.000  0.000  0.000  0.000  0.000  0.000   3.39   0.00   0.00      0      0    205.9   0.23   0.00   0.38    2.07    1.79    0.97    0.10    0.00    0.00    0.00    0.00      0      0      0       0       4 11.84
 2020 172    67    21    8.0      2   0.59    298     15      0    270    313    313      0    0.0  0.000      0      0  0.000  0.000  0.000  0.000  0.000  0.000  0.000   3.78   0.00   0.00      0      0    198.5   0.27   0.00   0.39    2.49    2.15    1.20    0.15    0.00    0.00    0.00    0.00      0      0      0       0       5 17.70
 2020 173    68    22    9.0      2   0.68    354     15      0    301    369    369      0    0.0  0.000      0      0  0.000  0.000  0.000  0.000  0.000  0.000  0.000   3.73   0.00   0.00      0      0    191.5   0.30   0.00   0.40    2.75    2.36    1.35    0.19    0.00    0.00    0.00    0.00      0      0      0       0       7 18.43
 2020 174    69    23    9.0      2   0.76    409     15      0    365    424    424      0    0.0  0.000      0      0  0.000  0.000  0.000  0.000  0.000  0.000  0.000   3.68   0.00   0.00      0      0    185.8   0.34   0.00   0.41    3.08    2.86    1.67    0.28    0.00    0.00    0.00    0.00      0      0      0       0       8 16.44
 2020 175    70    24   10.0      3   0.84    468     15      0    431    483    483      0    0.0  0.000      0      0  0.000  0.000  0.000  0.000  0.000  0.000  0.000   3.60   0.00   0.00      0      0    179.9   0.38   0.00   0.42    3.40    3.37    2.03    0.38    0.00    0.00    0.00    0.00      0      0      0       0      10 16.02
 2020 176    71    25   10.0      3   0.97    555     16      0    503    571    571      0    0.0  0.000      0      0  0.000  0.000  0.000  0.000  0.000  0.000  0.000   3.54   0.00   0.00      0      0    174.6   0.43   0.00   0.43    3.80    3.86    2.42    0.51    0.00    0.00    0.00    0.00      0      0      0       0      12 21.10
 2020 177    72    26   10.0      3   1.11    654     19      0    574    673    673      0    0.0  0.000      0      0  0.000  0.000  0.000  0.000  0.000  0.000  0.000   3.48   0.00   0.00      0      0    169.5   0.50   0.00   0.44    4.00    4.00    2.83    0.68    0.00    0.00    0.00    0.00      0      0      0       0      15 21.41
 2020 178    73    27   11.0      3   1.26    765     25      0    658    789    789      0    0.0  0.000      0      0  0.000  0.000  0.000  0.000  0.000  0.000  0.000   3.31   0.00   0.00      0      0    164.8   0.57   0.00   0.47    4.00    4.00    3.35    0.96    0.13    0.00    0.00    0.00      0      0      0       0      18 21.48
 2020 179    74    28   11.0      3   1.40    872     33      0    745    905    905      0    0.0  0.000      0      0  0.000  0.000  0.000  0.000  0.000  0.000  0.000   3.12   0.00   0.00      0      0    160.8   0.63   0.00   0.49    4.00    4.00    3.83    1.40    0.48    0.00    0.00    0.00      0      0      0       0      21 18.77
 2020 180    75    29   12.0      3   1.58   1009     48      0    830   1057   1057      0    0.0  0.000      0      0  0.000  0.000  0.000  0.000  0.000  0.000  0.000   2.83   0.00   0.00      0      0    156.5   0.71   0.00   0.51    4.00    4.00    4.00    1.94    0.98    0.00    0.00    0.00      0      0      0       0      25 19.08
 2020 181    76    30   12.0      3   1.77   1163     71      0    888   1235   1235      0    0.0  0.000      0      0  0.000  0.000  0.000  0.000  0.000  0.000  0.000   2.55   0.00   0.00      0      0    152.4   0.80   0.00   0.54    4.00    4.00    4.00    2.39    1.39    0.00    0.00    0.00      0      0      0       0      29 20.88
 2020 182    77    31   12.0      3   1.91   1287     96      0   1001   1383   1383      0    0.0  0.000      0      0  0.000  0.000  0.042  0.000  0.000  0.000  0.000   2.34   0.00   0.00      0      0    148.8   0.86   0.00   0.56    4.00    4.00    4.00    3.12    1.95    0.33    0.00    0.00      0      0      0       0      33 18.17
 2020 183    78    32   13.0      3   2.01   1390    120      0   1106   1511   1511      0    0.0  0.000      0      0  0.000  0.000  0.095  0.000  0.000  0.000  0.000   2.25   0.00   0.00      0      0    144.9   0.90   0.00   0.58    4.00    4.00    4.00    3.73    2.33    0.86    0.00    0.00      0      0      0       0      38 17.40
 2020 184    79    33   13.0      3   2.11   1497    152      0   1182   1649   1649      0    0.0  0.000      0      0  0.000  0.000  0.116  0.000  0.000  0.000  0.000   2.14   0.00   0.00      0      0    141.0   0.95   0.00   0.60    4.00    4.00    4.00    4.00    2.51    1.34    0.00    0.00      0      0      0       0      44 19.11
 2020 185    80    34   14.0      3   2.18   1588    184      0   1283   1772   1772      0    0.0  0.000      0      0  0.000  0.000  0.131  0.000  0.000  0.000  0.000   2.04   0.00   0.00      0      0    137.3   0.98   0.00   0.62    4.00    4.00    4.00    4.00    2.65    2.01    0.00    0.00      0      0      0       0      50 16.94
 2020 186    81    35   14.0      3   2.23   1665    216      0   1394   1880   1880      0    0.0  0.000      0      0  0.146  0.431  0.151  0.000  0.000  0.000  0.000   1.95   0.00   0.00      0      0    133.7   1.00   0.00   0.64    3.98    4.00    4.00    4.00    2.73    2.92    0.00    0.00      0      0      0       0      56 16.75
 2020 187    82    36   14.0      3   2.26   1733    248      0   1428   1981   1981      0    0.0  0.000      0      0  0.226  0.484  0.167  0.000  0.000  0.000  0.000   1.87   0.00   0.00      0      0    130.2   1.01   0.00   0.65    3.96    4.00    4.00    4.00    2.76    3.28    0.00    0.00      0      0      0       0      63 16.30
 2020 188    83    37   15.0      3   2.22   1766    265      0   1475   2031   2031      0    0.0  0.000      0      0  0.627  0.752  0.180  0.000  0.000  0.000  0.000   1.83   0.00   0.00      0      0    125.8   1.01   0.00   0.66    3.94    4.00    4.00    3.98    2.82    3.73    0.01    0.00      0      0      0       0      70 16.15
 2020 189    84    38   15.0      3   2.17   1791    281      0   1502   2072   2072      0    0.0  0.000      0      0  0.749  0.833  0.190  0.000  0.000  0.000  0.000   1.81   0.00   0.00      0      0    121.0   1.01   0.00   0.66    3.92    4.00    4.00    3.96    2.86    3.97    0.02    0.00      0      0      0       0      78 18.37
 2020 190    85    39   15.0      3   2.10   1812    296      0   1518   2108   2108      0    0.0  0.000      0      0  0.811  0.874  0.190  0.000  0.000  0.000  0.000   1.79   0.00   0.00      0      0    116.0   1.01   0.00   0.67    3.90    4.00    4.00    3.94    2.88    4.00    0.02    0.00      0      0      0       0      85 20.24
 2020 191    86    40   16.0      3   2.05   1839    318      0   1537   2157   2157      0    0.0  0.000      0      0  0.738  0.826  0.189  0.000  0.000  0.000  0.000   1.76   0.00   0.00      0      0    111.7   1.01   0.00   0.68    3.88    4.00    4.00    3.92    2.91    4.00    0.03    0.00      0      0      0       0      93 19.10
 2020 192    87    41   16.0      3   2.03   1876    351      0   1539   2227   2227      0    0.0  0.000      0      0  0.644  0.763  0.187  0.000  0.000  0.000  0.000   1.72   0.00   0.00      0      0    108.1   1.01   0.00   0.69    3.86    4.00    4.00    3.90    2.92    4.00    0.04    0.00      0      0      0       0     100 18.85
 2020 193    88    42   17.0      3   2.02   1940    385      0   1537   2325   2325      0    0.0  0.000      0      0  0.735  0.824  0.186  0.000  0.000  0.000  0.000   1.66   0.00   0.00      0      0    104.2   1.01   0.00   0.69    3.84    3.98    4.00    3.88    2.92    4.00    0.04    0.00      0      0      0       0     108 18.27
 2020 194    89    43   17.0      3   1.99   1981    435      0   1535   2417   2417      0    0.0  0.000      0      0  0.713  0.809  0.189  0.000  0.000  0.000  0.000   1.60   0.00   0.00      0      0    100.7   1.01   0.00   0.70    3.82    3.96    4.00    3.86    2.91    4.00    0.05    0.00      0      0      0       0     116 18.19
 2020 195    90    44   17.0      3   1.95   2009    479      0   1543   2488   2488      0    0.0  0.000      0      0  0.738  0.826  0.196  0.000  0.000  0.000  0.000   1.57   0.00   0.00      0      0     97.1   1.01   0.00   0.71    3.80    3.94    4.00    3.84    2.94    4.00    0.06    0.00      0      0      0       0     123 17.20
 2020 196    91    45   18.0      3   1.93   2045    548      0   1541   2593   2595      0    0.0  0.000      2      0  0.579  0.720  0.201  0.000  0.000  0.000  0.000   1.52   0.00   0.00      0      2     94.5   1.01   0.00   0.72    3.78    3.92    4.00    3.82    2.94    4.00    0.07    0.00      0      0      0       0     131 17.95
 2020 197    92    46   18.0      3   1.92   2082    624      0   1552   2706   2711      0    0.0  0.000      5      0  0.476  0.651  0.207  0.000  0.000  0.000  0.000   1.47   0.00   0.00      0      5     92.4   1.01   0.00   0.72    3.76    3.90    4.00    3.80    2.96    4.00    0.09    0.00      0      0      0       0     139 15.55
 2020 198    93    47   18.0      3   1.91   2117    702      0   1574   2819   2831      0    0.0  0.000     11      0  0.505  0.671  0.222  0.000  0.000  0.000  0.000   1.42   0.00   0.00      0     11     90.3   1.01   0.00   0.73    3.74    3.88    4.00    3.78    3.02    4.00    0.13    0.00      0      0      0       0     147 17.35
 2020 199    94    48   19.0      3   1.90   2158    802      0   1586   2960   2980      0    0.0  0.000     20      0  0.441  0.628  0.234  0.000  0.000  0.000  0.000   1.37   0.00   0.01      0     20     88.3   1.01   0.00   0.74    4.00    3.86    3.98    3.76    3.04    3.98    0.15    0.00      0      0      0       0     154 19.77
 2020 200    95    49   19.0      3   1.91   2207    926      0   1594   3133   3168      0    0.0  0.000     35      0  0.268  0.513  0.240  0.000  0.000  0.000  0.000   1.33   0.00   0.01      0     35     86.4   1.01   0.00   0.75    4.00    3.84    3.96    3.74    3.07    3.96    0.18    0.00      0      0      0       0     162 20.26
 2020 201    96    50   20.0      3   1.89   2244   1015      0   1629   3258   3314      0    0.0  0.000     56      0  0.000  0.000  0.250  0.000  0.000  0.000  0.000   1.29   0.00   0.02      0     56     84.4   1.01   0.00   0.76    4.00    3.82    3.94    3.72    3.16    3.94    0.26    0.00      0      0      0       0     170 16.25
 2020 202    97    51   20.0      3   1.88   2277   1088      0   1692   3365   3455      0    0.0  0.000     90      0  0.000  0.000  0.271  0.000  0.000  0.000  0.000   1.27   0.00   0.03      0     90     82.4   1.01   0.00   0.77    4.00    3.80    3.92    3.70    3.34    3.92    0.39    0.00      0      0      0       0     179 16.50
 2020 203    98    52   20.0      3   1.85   2306   1138      0   1764   3444   3578      0    0.0  0.000    134      0  0.000  0.000  0.277  0.000  0.000  0.000  0.000   1.26   0.00   0.04      0    134     80.3   1.01   0.00   0.78    4.00    3.78    3.90    3.69    3.53    3.90    0.55    0.00      0      0      0       0     187 14.70
 2020 204    99    53   20.0      3   1.84   2340   1194      0   1821   3535   3726      0    0.0  0.000    191      0  0.000  0.000  0.282  0.000  0.000  0.000  0.000   1.25   0.00   0.05      0    191     78.5   1.01   0.00   0.79    3.98    3.76    3.88    3.67    3.73    3.88    0.70    0.00      0      0      0       0     196 17.85
 2020 205   100    54   20.0      3   1.82   2377   1247      0   1859   3623   3881      0    0.0  0.000    258      0  0.000  0.000  0.281  0.000  0.000  0.000  0.000   1.23   0.00   0.07      0    258     76.7   1.01   0.00   0.80    3.96    3.74    3.86    3.65    3.80    3.86    0.82    0.00      0      0      0       0     205 18.75
 2020 206   101    55   20.0      3   1.81   2415   1280      0   1903   3694   4044      0    0.0  0.000    350      0  0.000  0.000  0.284  0.000  0.000  0.000  0.000   1.22   0.00   0.09      0    350     74.9   1.01   0.00   0.81    3.94    3.72    3.84    3.63    3.78    3.84    0.97    0.00      0      0      0       0     214 19.68
 2020 207   102    56   20.0      3   1.80   2453   1293      0   1944   3747   4209      0    0.0  0.000    462      0  0.000  0.316  0.287  0.000  0.000  0.000  0.000   1.21   0.00   0.11      0    462     73.3   1.01   0.00   0.82    3.92    3.70    3.82    3.61    3.76    3.82    1.11    0.00      0      0      0       0     224 20.01
 2020 208   103    57   20.0      3   1.79   2491   1313      0   1957   3803   4368      0    0.0  0.000    565      0  0.190  0.460  0.287  0.000  0.000  0.000  0.000   1.22   0.00   0.13      0    565     71.7   1.01   0.00   0.83    4.00    3.80    3.86    3.59    3.74    3.80    1.13    0.00      0      0      0       0     233 19.34
 2020 209   104    58   20.0      3   1.76   2518   1336      0   1954   3855   4485      0    0.0  0.000    630      0  0.000  0.000  0.272  0.000  0.000  0.000  0.000   1.22   0.00   0.14      0    630     70.0   1.01   0.00   0.84    4.00    3.81    3.86    3.57    3.72    3.78    1.13    0.00      0      0      0       0     243 15.20
 2020 210   105    59   20.0      4   1.71   2489   1418      0   1949   3906   4571      0    0.0  0.000    664      0  0.000  0.000  0.262  0.000  0.000  0.000  0.000   1.22   0.00   0.15      0    664     68.9   1.01   0.00   0.84    4.00    3.81    3.85    3.56    3.70    3.76    1.13    0.00      0      0      0       0     253 14.60
 2020 211   106    60   20.0      4   1.67   2457   1567      0   1949   4023   4759      0    0.0  0.000    736      0  0.000  0.000  0.247  0.000  0.000  0.000  0.000   1.21   0.00   0.15      0    736     67.9   1.01   0.00   0.85    4.00    3.84    3.86    3.54    3.68    3.74    1.14    0.00      0      0      0       0     263 17.25
 2020 212   107    61   20.0      4   1.62   2423   1695      0   1948   4118   4923      0    0.0  0.000    805      0  0.000  0.000  0.235  0.000  0.000  0.000  0.000   1.20   0.00   0.16      0    805     67.1   1.01   0.00   0.86    4.00    3.86    3.86    3.52    3.66    3.72    1.15    0.00      0      0      0       0     272 12.95
 2020 213   108    62   20.0      4   1.58   2387   1851      0   1949   4238   5130      0    0.0  0.000    892      0  0.000  0.000  0.239  0.000  0.000  0.000  0.000   1.18   0.00   0.17      0    892     66.2   1.01   0.00   0.87    4.00    3.89    3.87    3.50    3.64    3.70    1.15    0.00      0      0      0       0     282 13.45
 2020 214   109    63   20.0      4   1.54   2349   2002      0   1950   4351   5333      0    0.0  0.000    982      0  0.000  0.000  0.238  0.000  0.000  0.000  0.000   1.16   0.00   0.18      0    982     65.5   1.01   0.00   0.87    4.00    3.92    3.88    3.48    3.62    3.69    1.16    0.00      0      0      0       0     292 14.20
 2020 215   110    64   20.0      4   1.50   2310   2123      0   1948   4433   5488      0    0.0  0.000   1055      0  0.000  0.000  0.245  0.000  0.000  0.000  0.000   1.15   0.00   0.19      0   1055     64.9   1.01   0.00   0.88    4.00    3.94    3.88    3.46    3.61    3.67    1.16    0.00      0      0      0       0     302 13.55
 2020 216   111    65   20.0      4   1.46   2268   2236      0   1947   4505   5629      0    0.0  0.000   1124      0  0.000  0.000  0.251  0.000  0.000  0.000  0.000   1.14   0.00   0.20      0   1124     64.2   1.01   0.00   0.88    4.00    3.96    3.89    3.45    3.59    3.65    1.17    0.00      0      0      0       0     311 12.20
 2020 217   112    66   20.0      4   1.42   2225   2352      0   1945   4578   5774      0    0.0  0.000   1197      0  0.000  0.000  0.249  0.000  0.000  0.000  0.000   1.13   0.00   0.21      0   1197     63.7   1.01   0.00   0.89    4.00    3.98    3.89    3.43    3.57    3.63    1.17    0.00      0      0      0       0     321 13.85
 2020 218   113    67   20.0      4   1.38   2180   2480      0   1944   4660   5939      0    0.0  0.000   1279      0  0.000  0.000  0.246  0.000  0.000  0.000  0.000   1.12   0.00   0.22      0   1279     63.3   1.01   0.00   0.90    4.00    4.00    3.89    3.41    3.55    3.61    1.18    0.00      0      0      0       0     331 13.50
 2020 219   114    68   20.0      4   1.34   2133   2567      0   1941   4700   6036      0    0.0  0.000   1337      0  0.000  0.000  0.241  0.000  0.000  0.000  0.000   1.12   0.00   0.22      0   1337     63.0   1.01   0.00   0.90    4.00    4.00    3.89    3.39    3.53    3.59    1.18    0.00      0      0      0       0     341 15.55
 2020 220   115    69   20.0      4   1.31   2083   2691      0   1940   4774   6195      0    0.0  0.000   1421      0  0.000  0.000  0.237  0.000  0.000  0.000  0.000   1.11   0.00   0.23      0   1421     62.8   1.01   0.00   0.91    4.00    4.00    3.90    3.38    3.51    3.57    1.18    0.00      0      0      0       0     350 17.90
 2020 221   116    70   20.0      5   1.27   2083   2691    188   1940   4774   6382   1431   13.1  0.029   1609      8  0.000  0.000  0.224  0.000  0.000  0.000  0.000   1.08  11.66   0.25      0   1609     61.1   1.01   0.00   0.92    4.00    4.00    3.90    3.36    3.50    3.56    1.19    0.00      0      0      0       0     360 17.03
 2020 222   117    71   20.0      5   1.24   2083   2691    313   1951   4774   6508   1431   21.9  0.048   1734      8  0.000  0.000  0.260  0.000  0.000  0.000  0.000   1.06  18.03   0.27      0   1734     59.4   1.01   0.00   0.93    4.00    4.00    3.94    3.34    3.48    3.54    1.21    0.00      0      0      0       0     370 18.91
 2020 223   118    72   20.0      5   1.20   2083   2691    439   1955   4774   6633   1431   30.7  0.066   1860      8  0.000  0.000  0.263  0.000  0.000  0.000  0.000   1.04  23.58   0.28      0   1860     57.8   1.01   0.00   0.94    4.00    4.00    3.96    3.33    3.46    3.52    1.22    0.00      0      0      0       0     380 16.95
 2020 224   119    73   20.0      5   1.17   2083   2691    564   1962   4774   6759   1431   39.5  0.084   1986      8  0.000  0.271  0.269  0.000  0.000  0.000  0.000   1.02  28.43   0.29      0   1986     56.2   1.01   0.00   0.94    4.00    4.00    3.99    3.31    3.44    3.50    1.23    0.00      0      0      0       0     389 15.05
 2020 225   120    74   20.0      5   1.14   2083   2691    680   1964   4774   6874   1431   47.5  0.099   2101      8  0.157  0.438  0.276  0.000  0.000  0.000  0.000   1.01  32.35   0.31      0   2101     54.6   1.01   0.00   0.95    3.98    4.00    4.00    3.29    3.42    3.48    1.24    0.00      0      0      0       0     399 16.40
 2020 226   121    75   20.0      5   1.11   2083   2691    783   1970   4774   6978   1431   54.8  0.112   2204      8  0.319  0.547  0.280  0.000  0.000  0.000  0.000   0.99  35.53   0.32      0   2204     53.1   1.01   0.00   0.96    3.96    4.00    4.00    3.27    3.41    3.46    1.25    0.00      0      0      0       0     409 18.45
 2020 227   122    76   20.0      5   1.07   2083   2691    884   1966   4774   7079   1431   61.8  0.125   2305      8  0.360  0.574  0.285  0.000  0.000  0.000  0.000   0.97  38.36   0.33      0   2305     51.5   1.01   0.00   0.96    3.94    4.00    4.00    3.26    3.39    3.45    1.25    0.00      0      0      0       0     419 17.25
 2020 228   123    77   20.0      5   1.04   2083   2691    980   1962   4774   7174   1431   68.5  0.137   2401      8  0.444  0.630  0.291  0.000  0.000  0.000  0.000   0.95  40.80   0.33      0   2401     50.1   1.01   0.00   0.97    3.92    4.00    4.00    3.24    3.37    3.43    1.25    0.00      0      0      0       0     429 17.15
 2020 229   124    78   20.0      5   1.01   2083   2691   1067   1954   4774   7262   1431   74.6  0.147   2488      8  0.556  0.704  0.296  0.000  0.000  0.000  0.000   0.94  42.88   0.34      0   2488     48.6   1.01   0.00   0.98    3.90    3.99    3.98    3.22    3.35    3.41    1.25    0.00      0      0      0       0     438 17.15
 2020 230   125    79   20.0      5   0.98   2083   2691   1151   1948   4774   7346   1431   80.4  0.157   2572      8  0.609  0.740  0.302  0.000  0.000  0.000  0.000   0.93  44.74   0.35      0   2572     47.1   1.01   0.00   0.98    3.90    3.99    3.97    3.21    3.34    3.39    1.25    0.00      0      0      0       0     448 15.25
 2020 231   126    80   20.0      5   0.95   2083   2691   1277   1947   4774   7471   1431   89.2  0.171   2698      8  0.000  0.000  0.299  0.000  0.000  0.000  0.000   0.91  47.32   0.36      0   2698     45.8   1.01   0.00   0.99    3.92    4.00    3.98    3.19    3.32    3.38    1.25    0.00      0      0      0       0     458 15.90
 2020 232   127    81   20.0      5   0.93   2083   2687   1403   1937   4770   7593   1431   98.0  0.185   2824      8  0.000  0.000  0.311  0.000  0.000  0.000  0.000   0.89  49.67   0.37      0   2824     44.4   1.01   0.00   0.99    3.92    4.00    3.98    3.19    3.32    3.38    1.25    0.00      0      0      0       0     468 16.55
 2020 233   128    82   20.0      5   0.90   2083   2691   1528   1932   4774   7723   1431  106.8  0.198   2950      8  0.000  0.000  0.321  0.000  0.000  0.000  0.000   0.87  51.82   0.38      0   2950     43.1   1.01   0.00   0.99    3.92    4.00    3.97    3.17    3.30    3.36    1.25    0.00      0      0      0       0     477 15.35
 2020 234   129    83   20.0      5   0.87   2083   2686   1654   1922   4770   7845   1431  115.6  0.211   3075      8  0.000  0.000  0.330  0.000  0.000  0.000  0.000   0.85  53.79   0.39      0   3075     41.8   1.01   0.00   0.99    3.92    4.00    3.97    3.17    3.30    3.36    1.25    0.00      0      0      0       0     487 16.35
 2020 235   130    84   20.0      5   0.84   2083   2691   1752   1916   4774   7947   1431  122.5  0.220   3173      8  0.406  0.604  0.343  0.000  0.000  0.000  0.000   0.83  55.22   0.40      0   3173     40.5   1.01   0.00   1.00    3.90    4.00    3.96    3.16    3.29    3.34    1.25    0.00      0      0      0       0     497 16.65
 2020 236   131    85   20.0      5   0.82   2083   2679   1837   1906   4762   8020   1431  128.4  0.229   3258      8  0.598  0.732  0.351  0.000  0.000  0.000  0.000   0.82  56.38   0.41      0   3258     39.2   1.01   0.00   1.00    3.90    4.00    3.96    3.16    3.29    3.34    1.25    0.00      0      0      0       0     506 17.92
 2020 237   132    86   20.0      5   0.79   2083   2660   1915   1897   4743   8079   1431  133.8  0.237   3336      8  0.689  0.793  0.358  0.000  0.000  0.000  0.000   0.81  57.40   0.41      0   3336     37.8   1.01   0.00   1.00    3.90    4.00    3.96    3.16    3.29    3.34    1.25    0.00      0      0      0       0     516 17.64
 2020 238   133    87   20.0      5   0.76   2083   2649   2041   1887   4732   8194   1431  142.6  0.249   3462      8  0.000  0.000  0.356  0.000  0.000  0.000  0.000   0.79  58.95   0.42      0   3462     36.7   1.01   0.00   1.00    3.90    4.00    3.96    3.16    3.29    3.34    1.25    0.00      0      0      0       0     525 18.25
 2020 239   134    88   20.0      5   0.74   2083   2636   2167   1878   4719   8307   1431  151.4  0.261   3588      8  0.000  0.000  0.369  0.000  0.000  0.000  0.000   0.78  60.39   0.43      0   3588     35.5   1.01   0.00   1.00    3.90    4.00    3.96    3.16    3.29    3.34    1.25    0.00      0      0      0       0     535 16.08
 2020 240   135    89   20.0      5   0.72   2083   2618   2293   1868   4701   8414   1431  160.2  0.272   3714      8  0.000  0.000  0.378  0.000  0.000  0.000  0.000   0.76  61.73   0.44      0   3714     34.3   1.01   0.00   1.00    3.90    4.00    3.96    3.16    3.29    3.34    1.25    0.00      0      0      0       0     544 17.87
 2020 241   136    90   20.0      5   0.69   2083   2594   2418   1859   4677   8516   1431  169.0  0.284   3840      8  0.000  0.000  0.390  0.000  0.000  0.000  0.000   0.76  62.99   0.45      0   3840     33.2   1.01   0.00   1.00    3.90    4.00    3.96    3.16    3.29    3.34    1.25    0.00      0      0      0       0     553 18.16
 2020 242   137    91   20.0      5   0.67   2083   2519   2544   1850   4603   8568   1431  177.8  0.297   3965      8  0.000  0.000  0.392  0.000  0.000  0.000  0.000   0.76  64.16   0.46      0   3965     32.1   1.01   0.00   1.00    3.90    4.00    3.96    3.16    3.29    3.34    1.25    0.00      0      0      0       0     563 12.90
 2020 243   138    92   20.0      5   0.65   2083   2480   2670   1841   4563   8655   1431  186.6  0.309   4091      8  0.000  0.000  0.395  0.000  0.000  0.000  0.000   0.75  65.27   0.47      0   4091     31.0   1.01   0.00   1.00    3.90    4.00    3.96    3.16    3.29    3.34    1.25    0.00      0      0      0       0     572 16.65
 2020 244   139    93   20.0      5   0.63   2083   2449   2796   1831   4533   8750   1431  195.4  0.320   4217      8  0.000  0.000  0.391  0.000  0.000  0.000  0.000   0.74  66.30   0.48      0   4217     30.0   1.01   0.00   1.00    3.90    4.00    3.96    3.16    3.29    3.34    1.25    0.00      0      0      0       0     581 11.30
 2020 245   140    94   20.0      5   0.60   2083   2382   2922   1822   4465   8808   1431  204.2  0.332   4343      8  0.000  0.000  0.387  0.000  0.000  0.000  0.000   0.74  67.28   0.49      0   4343     29.0   1.01   0.00   1.00    3.90    4.00    3.96    3.16    3.29    3.34    1.25    0.00      0      0      0       0     590 12.50
 2020 246   141    95   20.0      5   0.58   2083   2347   3048   1813   4431   8900   1431  213.0  0.342   4469      8  0.000  0.000  0.393  0.000  0.000  0.000  0.000   0.73  68.20   0.50      0   4469     28.1   1.01   0.00   1.00    3.90    4.00    3.96    3.16    3.29    3.34    1.25    0.00      0      0      0       0     599 14.45
 2020 247   142    96   20.0      5   0.57   2083   2312   3174   1804   4395   8990   1431  221.8  0.353   4595      8  0.000  0.000  0.388  0.000  0.000  0.000  0.000   0.73  69.07   0.51      0   4595     27.2   1.01   0.00   1.00    3.90    4.00    3.96    3.16    3.29    3.34    1.25    0.00      0      0      0       0     608 11.75
 2020 248   143    97   20.0      5   0.55   2083   2271   3300   1795   4354   9075   1431  230.6  0.364   4721      8  0.000  0.000  0.388  0.000  0.000  0.000  0.000   0.72  69.90   0.52      0   4721     26.3   1.01   0.00   1.00    3.90    4.00    3.96    3.16    3.29    3.34    1.25    0.00      0      0      0       0     617 11.90
 2020 249   144    98   20.0      5   0.53   2083   2225   3426   1786   4308   9155   1431  239.4  0.374   4847      8  0.000  0.000  0.388  0.000  0.000  0.000  0.000   0.71  70.68   0.53      0   4847     25.4   1.01   0.00   1.00    3.90    4.00    3.96    3.16    3.29    3.34    1.25    0.00      0      0      0       0     626 16.75
 2020 250   145    99   20.0      5   0.51   2083   2181   3539   1777   4265   9225   1431  247.4  0.384   4960      8  0.000  0.000  0.389  0.000  0.000  0.000  0.000   0.71  71.35   0.54      0   4960     24.6   1.01   0.00   1.00    3.90    4.00    3.96    3.16    3.29    3.34    1.25    0.00      0      0      0       0     635 19.50
 2020 251   146   100   20.0      5   0.49   2083   2123   3665   1768   4206   9292   1431  256.2  0.394   5086      8  0.000  0.000  0.390  0.000  0.000  0.000  0.000   0.70  72.06   0.55      0   5086     23.8   1.01   0.00   1.00    3.90    4.00    3.96    3.16    3.29    3.34    1.25    0.00      0      0      0       0     644 16.00
 2020 252   147   101   20.0      5   0.44   2083   2088   3712   1759   4171   9303   1431  259.4  0.399   5133      8  0.000  0.000  0.403  0.000  0.000  0.000  0.000   0.70  72.31   0.55      0   5133     21.3   1.01   0.00   1.00    3.90    4.00    3.96    3.16    3.29    3.34    1.25    0.00      0      0      0       0     653  2.85
 2020 253   148   102   20.0      5   0.36   2083   2041   3758   1751   4124   9303   1431  262.7  0.404   5180      8  0.000  0.000  0.394  0.000  0.000  0.000  0.000   0.75  72.56   0.56      0   5180     17.4   1.01   0.00   1.00    3.90    4.00    3.96    3.16    3.29    3.34    1.25    0.00      0      0      0       0     662  0.00
 2020 254   149   103   20.0      5   0.35   2083   2019   3798   1742   4102   9321   1431  265.5  0.407   5219      8  0.000  0.000  0.322  0.000  0.000  0.000  0.000   0.77  72.77   0.56      0   5219     16.9   1.01   0.00   1.00    3.90    4.00    3.96    3.16    3.29    3.34    1.25    0.00      0      0      0       0     671  1.73
 2020 255   150   104   20.0      5   0.34   2083   1961   3917   1733   4044   9382   1431  273.8  0.418   5338      8  0.000  0.000  0.265  0.000  0.000  0.000  0.000   0.77  73.38   0.57      0   5338     16.4   1.01   0.00   1.00    3.90    4.00    3.96    3.16    3.29    3.34    1.25    0.00      0      0      0       0     679  7.45
 2020 256   151   105   20.0      5   0.33   2083   1899   4043   1724   3982   9446   1431  282.6  0.428   5464      8  0.000  0.000  0.263  0.000  0.000  0.000  0.000   0.77  73.99   0.58      0   5464     15.9   1.01   0.00   1.00    3.90    4.00    3.96    3.16    3.29    3.34    1.25    0.00      0      0      0       0     688 10.70
 2020 257   152   106   20.0      5   0.32   2083   1835   4169   1716   3919   9509   1431  291.4  0.438   5590      8  0.000  0.000  0.260  0.000  0.000  0.000  0.000   0.77  74.58   0.59      0   5590     15.5   1.01   0.00   1.00    3.90    4.00    3.96    3.16    3.29    3.34    1.25    0.00      0      0      0       0     697  9.73
 2020 258   153   107   20.0      5   0.31   2083   1762   4295   1707   3846   9562   1431  300.2  0.449   5716      8  0.000  0.000  0.254  0.000  0.000  0.000  0.000   0.77  75.14   0.60      0   5716     15.1   1.01   0.00   1.00    3.90    4.00    3.96    3.16    3.29    3.34    1.25    0.00      0      0      0       0     705  9.60
 2020 259   154   108   20.0      5   0.31   2083   1690   4421   1699   3774   9616   1431  309.0  0.460   5842      8  0.000  0.000  0.254  0.000  0.000  0.000  0.000   0.76  75.67   0.61      0   5842     14.7   1.01   0.00   1.00    3.90    4.00    3.96    3.16    3.29    3.34    1.25    0.00      0      0      0       0     714 10.40
 2020 260   155   109   20.0      5   0.30   2083   1615   4547   1690   3698   9666   1431  317.8  0.470   5968      8  0.000  0.000  0.253  0.000  0.000  0.000  0.000   0.75  76.19   0.62      0   5968     14.3   1.01   0.00   1.00    3.90    4.00    3.96    3.16    3.29    3.34    1.25    0.00      0      0      0       0     722  9.60
 2020 261   156   110   20.0      5   0.29   2083   1537   4673   1682   3620   9714   1431  326.6  0.481   6094      8  0.000  0.000  0.265  0.000  0.000  0.000  0.000   0.75  76.68   0.63      0   6094     13.9   1.01   0.00   1.00    3.90    4.00    3.96    3.16    3.29    3.34    1.25    0.00      0      0      0       0     731  9.50
 2020 262   157   111   20.0      5   0.28   2083   1453   4799   1673   3537   9756   1431  335.4  0.492   6220      8  0.000  0.000  0.267  0.000  0.000  0.000  0.000   0.75  77.15   0.64      0   6220     13.5   1.01   0.00   1.00    3.90    4.00    3.96    3.16    3.29    3.34    1.25    0.00      0      0      0       0     739 10.35
 2020 263   158   112   20.0      5   0.27   2083   1371   4924   1665   3454   9800   1431  344.2  0.503   6346      8  0.000  0.000  0.252  0.000  0.000  0.000  0.000   0.75  77.60   0.65      0   6346     13.1   1.01   0.00   1.00    3.90    4.00    3.96    3.16    3.29    3.34    1.25    0.00      0      0      0       0     747 10.90
 2020 264   159   113   20.0      5   0.27   2083   1291   5050   1657   3374   9845   1431  353.0  0.513   6472      8  0.000  0.000  0.242  0.000  0.000  0.000  0.000   0.74  78.04   0.66      0   6472     12.8   1.01   0.00   1.00    3.90    4.00    3.96    3.16    3.29    3.34    1.25    0.00      0      0      0       0     756 14.45
 2020 265   160   114   20.0      5   0.26   2083   1219   5176   1648   3303   9900   1431  361.8  0.523   6597      8  0.000  0.000  0.242  0.000  0.000  0.000  0.000   0.74  78.46   0.67      0   6597     12.4   1.01   0.00   1.00    3.90    4.00    3.96    3.16    3.29    3.34    1.25    0.00      0      0      0       0     764 11.95
 2020 266   161   115   20.0      5   0.25   2083   1148   5302   1640   3231   9955   1431  370.6  0.533   6723      8  0.000  0.000  0.246  0.000  0.000  0.000  0.000   0.72  78.86   0.68      0   6723     12.1   1.01   0.00   1.00    3.90    4.00    3.96    3.16    3.29    3.34    1.25    0.00      0      0      0       0     772 11.25
 2020 267   162   116   20.0      5   0.24   2083   1136   5341   1632   3219   9982   1431  373.3  0.535   6763      8  0.000  0.000  0.262  0.000  0.000  0.000  0.000   0.73  78.99   0.68      0   6763     11.8   1.01   0.00   1.00    3.90    4.00    3.96    3.16    3.29    3.34    1.25    0.00      0      0      0       0     781 13.10
 2020 268   163   117   20.0      5   0.24   2083   1136   5386   1624   3219  10026   1431  376.4  0.537   6807      8  0.000  0.000  0.200  0.000  0.000  0.000  0.000   0.74  79.12   0.68      0   6807     11.5   1.01   0.00   1.00    3.90    4.00    3.96    3.16    3.29    3.34    1.25    0.00      0      0      0       0     789 14.56
 2020 269   164   118   20.0      5   0.23   2083   1136   5430   1616   3219  10070   1431  379.5  0.539   6851      8  0.000  0.000  0.186  0.000  0.000  0.000  0.000   0.74  79.26   0.68      0   6851     11.2   1.01   0.00   1.00    3.90    4.00    3.96    3.16    3.29    3.34    1.25    0.00      0      0      0       0     797 15.25
 2020 270   165   119   20.0      5   0.23   2083   1136   5468   1608   3219  10109   1431  382.2  0.541   6890      8  0.000  0.000  0.177  0.000  0.000  0.000  0.000   0.75  79.37   0.68      0   6890     11.0   1.01   0.00   1.00    3.90    4.00    3.96    3.16    3.29    3.34    1.25    0.00      0      0      0       0     805 14.70
 2020 271   166   120   20.0      5   0.23   2083   1136   5468   1608   3219  10109   1431  382.2  0.541   6890      8  0.000  0.000  0.170  0.000  0.000  0.000  0.000   0.75  79.37   0.68      0   6890     11.0   1.01   0.00   1.00    3.90    4.00    3.96    3.16    3.29    3.34    1.25    0.00      0      0      0       0     805  9.10
 2020 272   167   121   20.0      5   0.23   2083   1136   5468   1608   3219  10109   1431  382.2  0.541   6890      8  0.000  0.000  0.170  0.000  0.000  0.000  0.000   0.75  79.37   0.68      0   6890     11.0   1.01   0.00   1.00    3.90    4.00    3.96    3.16    3.29    3.34    1.25    0.00      0      0      0       0     805  4.82
 2020 273   168   122   20.0      5   0.23   2083   1136   5468   1608   3219  10109   1431  382.2  0.541   6890      8  0.000  0.000  0.170  0.000  0.000  0.000  0.000   0.75  79.37   0.68      0   6890     11.0   1.01   0.00   1.00    3.90    4.00    3.96    3.16    3.29    3.34    1.25    0.00      0      0      0       0     805  8.98
 2020 274   169   123   20.0      5   0.23   2083   1136   5468   1608   3219  10109   1431  382.2  0.541   6890      8  0.000  0.000  0.170  0.000  0.000  0.000  0.000   0.75  79.37   0.68      0   6890     11.0   1.01   0.00   1.00    3.90    4.00    3.96    3.16    3.29    3.34    1.25    0.00      0      0      0       0     805  8.37
 2020 275   170   124   20.0      5   0.23   2083   1136   5468   1608   3219  10109   1431  382.2  0.541   6890      8  0.000  0.000  0.170  0.000  0.000  0.000  0.000   0.75  79.37   0.68      0   6890     11.0   1.01   0.00   1.00    3.90    4.00    3.96    3.16    3.29    3.34    1.25    0.00      0      0      0       0     805  4.85
 2020 276   171   125   20.0      5   0.23   2083   1136   5468   1608   3219  10109   1431  382.2  0.541   6890      8  0.000  0.000  0.170  0.000  0.000  0.000  0.000   0.75  79.37   0.68      0   6890     11.0   1.01   0.00   1.00    3.90    4.00    3.96    3.16    3.29    3.34    1.25    0.00      0      0      0       0     805  7.79
 2020 277   172   126   20.0      5   0.23   2083   1136   5468   1608   3219  10109   1431  382.2  0.541   6890      8  0.000  0.000  0.170  0.000  0.000  0.000  0.000   0.75  79.37   0.68      0   6890     11.0   1.01   0.00   1.00    3.90    4.00    3.96    3.16    3.29    3.34    1.25    0.00      0      0      0       0     805  0.00

*DSSAT Cropping System Model Ver. 4.7.5.035 -develop  JUN 14, 2021 09:08:55

*RUN   2        : 20 IRRIG, PETPEN KCB..... MZCER047 KSRT2001    2
 MODEL          : MZCER047 - Maize
 EXPERIMENT     : KSRT2001 SB ARM 2020 KS, IRRIGATED
 DATA PATH      :
 TREATMENT  2   : 20 IRRIG, PETPEN KCB..... MZCER047
  
!                                                                                                                                                                                                                                      Root Dens. (cm/cm3) by soil depth (cm):
!                                                                                                                                                                                                                                      0-5    5-15   15-29   29-43   43-53   53-64  64-132 132-201
@YEAR DOY   DAS   DAP   L#SD   GSTD   LAID   LWAD   SWAD   GWAD   RWAD   VWAD   CWAD   G#AD   GWGD   HIAD   PWAD   P#AD   WSPD   WSGD   NSTD   EWSD  PST1A  PST2A   KSTD   LN%D   SH%D   HIPD   PWDD   PWTD     SLAD   CHTD   CWID   RDPD    RL1D    RL2D    RL3D    RL4D    RL5D    RL6D    RL7D    RL8D   CDAD   LDAD   SDAD   SNW0C   SNW1C  DTTD
 2020 151    46     0    0.0      0   0.00      0      0      0      0      0      0      0    0.0  0.000      0      0  0.000  0.000  0.000  0.000  0.000  0.000  0.000   0.00   0.00   0.00      0      0      0.0   0.00   0.00   0.05    0.00    0.00    0.00    0.00    0.00    0.00    0.00    0.00      0      0      0       0       0 20.06
 2020 152    47     1    0.0      0   0.00      0      0      0      0      0      0      0    0.0  0.000      0      0  0.000  0.000  0.000  0.000  0.000  0.000  0.000   0.00   0.00   0.00      0      0      0.0   0.00   0.00   0.08    0.00    0.00    0.00    0.00    0.00    0.00    0.00    0.00      0      0      0       0       0 20.09
 2020 153    48     2    0.0      0   0.00      0      0      0      0      0      0      0    0.0  0.000      0      0  0.000  0.000  0.000  0.000  0.000  0.000  0.000   0.00   0.00   0.00      0      0      0.0   0.00   0.00   0.11    0.00    0.00    0.00    0.00    0.00    0.00    0.00    0.00      0      0      0       0       0 20.05
 2020 154    49     3    0.0      0   0.00      0      0      0      0      0      0      0    0.0  0.000      0      0  0.000  0.000  0.000  0.000  0.000  0.000  0.000   0.00   0.00   0.00      0      0      0.0   0.00   0.00   0.14    0.00    0.00    0.00    0.00    0.00    0.00    0.00    0.00      0      0      0       0       0 21.04
 2020 155    50     4    0.0      0   0.00      0      0      0      0      0      0      0    0.0  0.000      0      0  0.000  0.000  0.000  0.000  0.000  0.000  0.000   0.00   0.00   0.00      0      0      0.0   0.00   0.00   0.17    0.00    0.00    0.00    0.00    0.00    0.00    0.00    0.00      0      0      0       0       0 20.80
 2020 156    51     5    2.0      1   0.00     15     15      0     15     30     30      0    0.0  0.000      0      0  0.000  0.000  0.012  0.000  0.000  0.000  0.000   4.40   0.00   0.00      0      0     30.6   0.00   0.00   0.19    0.30    0.15    0.02    0.00    0.00    0.00    0.00    0.00      0      0      0       0       0 20.17
 2020 157    52     6    2.0      1   0.01     15     15      0     15     30     30      0    0.0  0.000      0      0  0.612  0.742  0.010  0.000  0.000  0.000  0.000   4.40   0.00   0.00      0      0     38.0   0.00   0.00   0.20    0.30    0.16    0.02    0.00    0.00    0.00    0.00    0.00      0      0      0       0       0 21.65
 2020 158    53     7    3.0      1   0.01     15     15      0     16     30     30      0    0.0  0.000      0      0  0.641  0.761  0.001  0.000  0.000  0.000  0.000   4.40   0.00   0.00      0      0     45.8   0.00   0.00   0.22    0.30    0.16    0.02    0.00    0.00    0.00    0.00    0.00      0      0      0       0       0 21.85
 2020 159    54     8    3.0      1   0.01     15     15      0     16     30     30      0    0.0  0.000      0      0  0.697  0.799  0.000  0.000  0.000  0.000  0.000   4.40   0.00   0.00      0      0     52.9   0.00   0.00   0.23    0.30    0.16    0.02    0.00    0.00    0.00    0.00    0.00      0      0      0       0       0 22.57
 2020 160    55     9    4.0      1   0.01     15     15      0     16     30     30      0    0.0  0.000      0      0  0.708  0.806  0.000  0.000  0.000  0.000  0.000   4.40   0.00   0.00      0      0     80.9   0.01   0.00   0.24    0.30    0.16    0.02    0.00    0.00    0.00    0.00    0.00      0      0      0       0       0 22.32
 2020 161    56    10    4.0      1   0.02     15     15      0     17     30     30      0    0.0  0.000      0      0  0.373  0.583  0.000  0.000  0.000  0.000  0.000   4.40   0.00   0.00      0      0    108.6   0.01   0.00   0.25    0.29    0.16    0.02    0.00    0.00    0.00    0.00    0.00      0      0      0       0       0  9.40
 2020 162    57    11    4.0      1   0.02     15     15      0     18     30     30      0    0.0  0.000      0      0  0.497  0.665  0.000  0.000  0.000  0.000  0.000   4.40   0.00   0.00      0      0    139.3   0.01   0.00   0.26    0.30    0.17    0.03    0.00    0.00    0.00    0.00    0.00      0      0      0       0       0 12.21
 2020 163    58    12    5.0      1   0.03     15     15      0     19     30     30      0    0.0  0.000      0      0  0.644  0.763  0.000  0.000  0.000  0.000  0.000   4.40   0.00   0.00      0      0    176.2   0.01   0.00   0.27    0.31    0.19    0.04    0.00    0.00    0.00    0.00    0.00      0      0      0       0       0 18.70
 2020 164    59    13    5.0      1   0.03     15     15      0     21     30     30      0    0.0  0.000      0      0  0.645  0.764  0.000  0.000  0.000  0.000  0.000   4.40   0.00   0.00      0      0    221.5   0.02   0.00   0.28    0.32    0.20    0.05    0.00    0.00    0.00    0.00    0.00      0      0      0       0       0 20.33
 2020 165    60    14    6.0      1   0.04     15     15      0     23     30     30      0    0.0  0.000      0      0  0.717  0.812  0.000  0.000  0.000  0.000  0.000   4.40   0.00   0.00      0      0    258.1   0.02   0.00   0.29    0.34    0.21    0.05    0.00    0.00    0.00    0.00    0.00      0      0      0       0       0 20.05
 2020 166    61    15    6.0      1   0.05     15     15      0     24     30     30      0    0.0  0.000      0      0  0.733  0.822  0.000  0.000  0.000  0.000  0.000   4.41   0.00   0.00      0      0    300.8   0.02   0.00   0.31    0.35    0.22    0.06    0.00    0.00    0.00    0.00    0.00      0      0      0       0       0 21.18
 2020 167    62    16    7.0      1   0.05     18     15      0     24     34     34      0    0.0  0.000      0      0  0.740  0.827  0.000  0.000  0.000  0.000  0.000   3.99   0.00   0.00      0      0    285.2   0.02   0.00   0.33    0.35    0.22    0.06    0.00    0.00    0.00    0.00    0.00      0      0      0       0       0 21.41
 2020 168    63    17    7.0      2   0.06     21     15      0     25     36     36      0    0.0  0.000      0      0  0.710  0.807  0.000  0.000  0.000  0.000  0.000   3.67   0.00   0.00      0      0    294.1   0.03   0.00   0.35    0.35    0.23    0.07    0.00    0.00    0.00    0.00    0.00      0      0      0       0       0 20.62
 2020 169    64    18    7.0      2   0.07     25     15      0     26     41     41      0    0.0  0.000      0      0  0.722  0.815  0.000  0.000  0.000  0.000  0.000   3.50   0.00   0.00      0      0    280.5   0.03   0.00   0.38    0.35    0.23    0.07    0.00    0.00    0.00    0.00    0.00      0      0      0       0       0 22.19
 2020 170    65    19    8.0      2   0.09     32     15      0     27     47     47      0    0.0  0.000      0      0  0.625  0.751  0.000  0.000  0.000  0.000  0.000   3.30   0.00   0.00      0      0    268.2   0.04   0.00   0.40    0.36    0.24    0.07    0.01    0.00    0.00    0.00    0.00      0      0      0       0       0 18.44
 2020 171    66    20    8.0      2   0.11     42     15      0     29     57     57      0    0.0  0.000      0      0  0.087  0.392  0.000  0.000  0.000  0.000  0.000   3.12   0.00   0.00      0      0    262.5   0.05   0.00   0.42    0.37    0.25    0.08    0.01    0.00    0.00    0.00    0.00      0      0      0       0       0 11.84
 2020 172    67    21    8.0      2   0.14     55     15      0     32     70     70      0    0.0  0.000      0      0  0.427  0.619  0.000  0.000  0.000  0.000  0.000   4.33   0.00   0.00      0      0    251.0   0.06   0.00   0.45    0.39    0.27    0.09    0.03    0.00    0.00    0.00    0.00      0      0      0       0       1 17.70
 2020 173    68    22    9.0      2   0.16     66     15      0     34     81     81      0    0.0  0.000      0      0  0.510  0.674  0.000  0.000  0.000  0.000  0.000   4.31   0.00   0.00      0      0    240.6   0.07   0.00   0.47    0.40    0.28    0.10    0.03    0.00    0.00    0.00    0.00      0      0      0       0       1 18.43
 2020 174    69    23    9.0      2   0.18     80     15      0     40     95     95      0    0.0  0.000      0      0  0.477  0.652  0.000  0.000  0.000  0.000  0.000   4.21   0.00   0.00      0      0    231.1   0.08   0.00   0.49    0.42    0.31    0.12    0.06    0.01    0.00    0.00    0.00      0      0      0       0       1 16.44
 2020 175    70    24   10.0      3   0.23    104     15      0     52    120    120      0    0.0  0.000      0      0  0.143  0.429  0.000  0.000  0.000  0.000  0.000   3.72   0.00   0.00      0      0    221.2   0.10   0.00   0.50    0.46    0.38    0.16    0.10    0.02    0.00    0.00    0.00      0      0      0       0       1 16.02
 2020 176    71    25   10.0      3   0.28    134     16      0     63    150    150      0    0.0  0.000      0      0  0.302  0.535  0.000  0.000  0.000  0.000  0.000   3.85   0.00   0.00      0      0    212.2   0.13   0.00   0.53    0.51    0.44    0.20    0.14    0.04    0.00    0.00    0.00      0      0      0       0       1 21.10
 2020 177    72    26   10.0      3   0.34    168     16      0     76    184    184      0    0.0  0.000      0      0  0.325  0.550  0.000  0.000  0.000  0.000  0.000   3.79   0.00   0.00      0      0    203.7   0.15   0.00   0.55    0.56    0.51    0.25    0.19    0.06    0.00    0.00    0.00      0      0      0       0       2 21.41
 2020 178    73    27   11.0      3   0.44    225     19      0    101    244    244      0    0.0  0.000      0      0  0.000  0.323  0.000  0.000  0.000  0.000  0.000   3.42   0.00   0.00      0      0    196.8   0.20   0.00   0.58    0.67    0.64    0.34    0.28    0.10    0.01    0.00    0.00      0      0      0       0       2 21.48
 2020 179    74    28   11.0      3   0.55    288     24      0    132    312    312      0    0.0  0.000      0      0  0.000  0.251  0.000  0.000  0.000  0.000  0.000   3.37   0.00   0.00      0      0    190.4   0.25   0.00   0.60    0.79    0.80    0.44    0.39    0.15    0.04    0.00    0.00      0      0      0       0       3 18.77
 2020 180    75    29   12.0      3   0.69    379     34      0    162    413    413      0    0.0  0.000      0      0  0.000  0.170  0.000  0.000  0.000  0.000  0.000   3.33   0.00   0.00      0      0    182.9   0.31   0.00   0.62    0.89    0.95    0.55    0.50    0.20    0.08    0.00    0.00      0      0      0       0       3 19.08
 2020 181    76    30   12.0      3   0.85    481     50      0    187    530    530      0    0.0  0.000      0      0  0.000  0.202  0.000  0.000  0.000  0.000  0.000   3.44   0.00   0.00      0      0    176.2   0.38   0.00   0.65    0.95    1.07    0.64    0.58    0.24    0.12    0.00    0.00      0      0      0       0       4 20.88
 2020 182    77    31   12.0      3   1.01    596     72      0    239    669    669      0    0.0  0.000      0      0  0.000  0.000  0.000  0.000  0.000  0.000  0.000   3.23   0.00   0.00      0      0    170.0   0.46   0.00   0.66    1.05    1.32    0.82    0.77    0.34    0.21    0.00    0.00      0      0      0       0       5 18.17
 2020 183    78    32   13.0      3   1.18    712    100      0    294    812    812      0    0.0  0.000      0      0  0.000  0.000  0.000  0.000  0.000  0.000  0.000   3.18   0.00   0.00      0      0    165.0   0.53   0.00   0.67    1.21    1.56    1.01    0.97    0.44    0.31    0.00    0.00      0      0      0       0       6 17.40
 2020 184    79    33   13.0      3   1.35    844    139      0    331    983    983      0    0.0  0.000      0      0  0.000  0.000  0.000  0.000  0.000  0.000  0.000   3.14   0.00   0.00      0      0    160.2   0.61   0.00   0.68    1.30    1.69    1.15    1.11    0.51    0.38    0.00    0.00      0      0      0       0       8 19.11
 2020 185    80    34   14.0      3   1.51    965    181      0    398   1146   1146      0    0.0  0.000      0      0  0.000  0.000  0.000  0.000  0.000  0.000  0.000   3.10   0.00   0.00      0      0    156.4   0.68   0.00   0.69    1.42    1.88    1.40    1.37    0.67    0.54    0.00    0.00      0      0      0       0       9 16.94
 2020 186    81    35   14.0      3   1.67   1088    232      0    475   1319   1319      0    0.0  0.000      0      0  0.000  0.000  0.000  0.000  0.000  0.000  0.000   3.04   0.00   0.00      0      0    153.1   0.75   0.00   0.70    1.44    1.94    1.72    1.71    0.91    0.77    0.00    0.00      0      0      0       0      11 16.75
 2020 187    82    36   14.0      3   1.82   1210    289      0    484   1499   1499      0    0.0  0.000      0      0  0.000  0.000  0.000  0.000  0.000  0.000  0.000   2.95   0.00   0.00      0      0    150.2   0.82   0.00   0.70    1.44    1.93    1.75    1.75    0.94    0.81    0.00    0.00      0      0      0       0      14 16.30
 2020 188    83    37   15.0      3   1.97   1334    355      0    576   1689   1689      0    0.0  0.000      0      0  0.000  0.000  0.000  0.000  0.000  0.000  0.000   2.74   0.00   0.00      0      0    147.5   0.88   0.00   0.71    1.55    2.04    1.92    1.96    1.41    1.27    0.02    0.00      0      0      0       0      16 16.15
 2020 189    84    38   15.0      3   2.14   1477    443      0    663   1920   1920      0    0.0  0.000      0      0  0.000  0.000  0.000  0.000  0.000  0.000  0.000   2.49   0.00   0.00      0      0    144.8   0.96   0.00   0.72    1.54    2.23    2.02    2.06    1.88    1.73    0.06    0.00      0      0      0       0      19 18.37
 2020 190    85    39   15.0      3   2.32   1634    553      0    725   2188   2188      0    0.0  0.000      0      0  0.000  0.000  0.011  0.000  0.000  0.000  0.000   2.26   0.00   0.00      0      0    141.9   1.04   0.00   0.73    1.53    2.42    2.12    2.16    2.08    1.93    0.11    0.00      0      0      0       0      22 20.24
 2020 191    86    40   16.0      3   2.46   1770    662      0    796   2432   2432      0    0.0  0.000      0      0  0.000  0.000  0.051  0.000  0.000  0.000  0.000   2.09   0.00   0.00      0      0    138.9   1.10   0.00   0.74    1.52    2.71    2.28    2.32    2.17    2.03    0.18    0.00      0      0      0       0      26 19.10
 2020 192    87    41   16.0      3   2.56   1890    769      0    805   2658   2658      0    0.0  0.000      0      0  0.000  0.000  0.089  0.000  0.000  0.000  0.000   1.97   0.00   0.00      0      0    135.7   1.15   0.00   0.75    1.52    2.74    2.29    2.33    2.17    2.03    0.19    0.00      0      0      0       0      30 18.85
 2020 193    88    42   17.0      3   2.79   2129    896      0    821   3025   3025      0    0.0  0.000      0      0  0.000  0.000  0.116  0.000  0.000  0.000  0.000   1.77   0.00   0.00      0      0    131.0   1.25   0.00   0.76    1.51    2.81    2.33    2.37    2.19    2.05    0.21    0.00      0      0      0       0      34 18.27
 2020 194    89    43   17.0      3   2.90   2275   1069      0    835   3344   3344      0    0.0  0.000      0      0  0.000  0.000  0.135  0.000  0.000  0.000  0.000   1.64   0.00   0.00      0      0    127.4   1.30   0.00   0.77    1.50    2.86    2.35    2.39    2.20    2.06    0.22    0.00      0      0      0       0      38 18.19
 2020 195    90    44   17.0      3   2.94   2370   1215      0    903   3585   3585      0    0.0  0.000      0      0  0.000  0.115  0.169  0.000  0.000  0.000  0.000   1.56   0.00   0.00      0      0    124.0   1.32   0.00   0.78    1.49    3.11    2.49    2.53    2.28    2.14    0.30    0.00      0      0      0       0      42 17.20
 2020 196    91    45   18.0      3   2.95   2445   1349      0    929   3794   3798      0    0.0  0.000      5      0  0.000  0.000  0.190  0.000  0.000  0.000  0.000   1.50   0.00   0.00      0      5    120.5   1.32   0.00   0.79    1.48    3.21    2.54    2.58    2.31    2.17    0.33    0.00      0      0      0       0      47 17.95
 2020 197    92    46   18.0      3   2.93   2499   1456      0    981   3955   3966      0    0.0  0.000     11      0  0.000  0.000  0.205  0.000  0.000  0.000  0.000   1.46   0.00   0.00      0     11    117.2   1.32   0.00   0.80    1.48    3.40    2.64    2.68    2.37    2.23    0.39    0.00      0      0      0       0      51 15.55
 2020 198    93    47   18.0      3   2.91   2552   1567      0   1057   4120   4142      0    0.0  0.000     22      0  0.000  0.000  0.226  0.000  0.000  0.000  0.000   1.43   0.00   0.01      0     22    113.9   1.32   0.00   0.81    1.47    3.68    2.79    2.83    2.46    2.32    0.48    0.00      0      0      0       0      56 17.35
 2020 199    94    48   19.0      3   2.89   2607   1691      0   1113   4298   4334      0    0.0  0.000     36      0  0.000  0.000  0.231  0.000  0.000  0.000  0.000   1.40   0.00   0.01      0     36    110.7   1.32   0.00   0.82    2.10    3.83    2.87    2.91    2.50    2.36    0.53    0.00      0      0      0       0      62 19.77
 2020 200    95    49   19.0      3   2.86   2658   1813      0   1151   4471   4527      0    0.0  0.000     55      0  0.000  0.000  0.232  0.000  0.000  0.000  0.000   1.37   0.00   0.01      0     55    107.7   1.32   0.00   0.83    2.23    3.95    2.94    2.98    2.54    2.40    0.57    0.00      0      0      0       0      67 20.26
 2020 201    96    50   20.0      3   2.83   2697   1900      0   1210   4597   4677      0    0.0  0.000     81      0  0.000  0.000  0.238  0.000  0.000  0.000  0.000   1.35   0.00   0.02      0     81    104.8   1.32   0.00   0.84    2.44    4.00    3.05    3.08    2.60    2.46    0.63    0.00      0      0      0       0      73 16.25
 2020 202    97    51   20.0      3   2.79   2734   1969      0   1306   4703   4827      0    0.0  0.000    124      0  0.000  0.000  0.244  0.000  0.000  0.000  0.000   1.34   0.00   0.03      0    124    102.0   1.32   0.00   0.85    2.77    4.00    3.22    3.26    2.70    2.57    0.73    0.00      0      0      0       0      79 16.50
 2020 203    98    52   20.0      3   2.75   2765   2014      0   1412   4780   4959      0    0.0  0.000    179      0  0.000  0.000  0.244  0.000  0.000  0.000  0.000   1.33   0.00   0.04      0    179     99.3   1.32   0.00   0.86    3.14    4.00    3.42    3.46    2.82    2.69    0.84    0.00      0      0      0       0      85 14.70
 2020 204    99    53   20.0      3   2.71   2804   2065      0   1501   4868   5119      0    0.0  0.000    251      0  0.000  0.000  0.243  0.000  0.000  0.000  0.000   1.32   0.00   0.05      0    251     96.7   1.32   0.00   0.87    3.45    4.00    3.59    3.63    2.92    2.79    0.93    0.00      0      0      0       0      92 17.85
 2020 205   100    54   20.0      3   2.68   2844   2109      0   1568   4953   5289      0    0.0  0.000    336      0  0.000  0.203  0.238  0.000  0.000  0.000  0.000   1.31   0.00   0.06      0    336     94.2   1.32   0.00   0.88    3.69    4.00    3.71    3.75    2.99    2.86    0.99    0.00      0      0      0       0     100 18.75
 2020 206   101    55   20.0      3   2.65   2888   2136      0   1630   5024   5469      0    0.0  0.000    445      0  0.293  0.529  0.235  0.000  0.000  0.000  0.000   1.30   0.00   0.08      0    445     91.8   1.32   0.00   0.89    3.67    4.00    3.84    3.88    3.07    2.93    1.06    0.00      0      0      0       0     108 19.68
 2020 207   102    56   20.0      3   2.61   2920   2140      0   1671   5060   5602      0    0.0  0.000    543      0  0.481  0.655  0.234  0.000  0.000  0.000  0.000   1.30   0.00   0.10      0    543     89.5   1.32   0.00   0.90    3.65    4.00    3.92    3.96    3.11    2.98    1.11    0.00      0      0      0       0     116 20.01
 2020 208   103    57   20.0      3   2.58   2952   2149      0   1688   5101   5735      0    0.0  0.000    634      0  0.470  0.647  0.230  0.000  0.000  0.000  0.000   1.30   0.00   0.11      0    634     87.3   1.32   0.00   0.90    3.72    4.00    3.95    3.99    3.13    3.00    1.12    0.00      0      0      0       0     124 19.34
 2020 209   104    58   20.0      3   2.55   2986   2165      0   1691   5151   5878      0    0.0  0.000    727      0  0.000  0.000  0.219  0.000  0.000  0.000  0.000   1.30   0.00   0.12      0    727     85.3   1.32   0.00   0.91    3.74    4.00    3.96    3.99    3.13    3.00    1.13    0.00      0      0      0       0     133 15.20
 2020 210   105    59   20.0      4   2.48   2952   2265      0   1689   5217   5991      0    0.0  0.000    774      0  0.000  0.000  0.213  0.000  0.000  0.000  0.000   1.29   0.00   0.13      0    774     84.0   1.32   0.00   0.92    3.74    4.00    3.95    3.99    3.12    2.99    1.13    0.00      0      0      0       0     141 14.60
 2020 211   106    60   20.0      4   2.42   2915   2447      0   1693   5363   6236      0    0.0  0.000    874      0  0.000  0.000  0.200  0.000  0.000  0.000  0.000   1.27   0.00   0.14      0    874     83.0   1.32   0.00   0.93    3.77    4.00    3.95    3.99    3.12    2.99    1.13    0.00      0      0      0       0     150 17.25
 2020 212   107    61   20.0      4   2.36   2877   2604      0   1695   5480   6448      0    0.0  0.000    968      0  0.000  0.000  0.197  0.000  0.000  0.000  0.000   1.25   0.00   0.15      0    968     82.0   1.32   0.00   0.93    3.79    4.00    3.95    3.99    3.11    2.99    1.14    0.00      0      0      0       0     158 12.95
 2020 213   108    62   20.0      4   2.30   2836   2794      0   1700   5630   6717      0    0.0  0.000   1087      0  0.000  0.000  0.200  0.000  0.000  0.000  0.000   1.23   0.00   0.16      0   1087     81.1   1.32   0.00   0.94    3.82    4.00    3.96    4.00    3.11    2.99    1.14    0.00      0      0      0       0     167 13.45
 2020 214   109    63   20.0      4   2.24   2792   2980      0   1705   5772   6981      0    0.0  0.000   1209      0  0.000  0.000  0.200  0.000  0.000  0.000  0.000   1.21   0.00   0.17      0   1209     80.3   1.32   0.00   0.94    3.84    4.00    3.96    4.00    3.11    2.99    1.15    0.00      0      0      0       0     175 14.20
 2020 215   110    64   20.0      4   2.19   2747   3129      0   1707   5876   7185      0    0.0  0.000   1309      0  0.000  0.000  0.208  0.000  0.000  0.000  0.000   1.20   0.00   0.18      0   1309     79.6   1.32   0.00   0.95    3.86    4.00    3.97    4.00    3.11    2.99    1.15    0.00      0      0      0       0     184 13.55
 2020 216   111    65   20.0      4   2.13   2700   3269      0   1709   5969   7373      0    0.0  0.000   1404      0  0.000  0.000  0.214  0.000  0.000  0.000  0.000   1.19   0.00   0.19      0   1404     78.9   1.32   0.00   0.96    3.88    4.00    3.97    4.00    3.11    2.98    1.16    0.00      0      0      0       0     192 12.20
 2020 217   112    66   20.0      4   2.08   2650   3413      0   1711   6063   7568      0    0.0  0.000   1505      0  0.000  0.000  0.213  0.000  0.000  0.000  0.000   1.17   0.00   0.20      0   1505     78.3   1.32   0.00   0.96    3.90    4.00    3.97    4.00    3.10    2.98    1.16    0.00      0      0      0       0     201 13.85
 2020 218   113    67   20.0      4   2.02   2599   3572      0   1714   6170   7788      0    0.0  0.000   1618      0  0.000  0.000  0.212  0.000  0.000  0.000  0.000   1.16   0.00   0.21      0   1618     77.8   1.32   0.00   0.97    3.92    4.00    3.97    4.00    3.10    2.98    1.16    0.00      0      0      0       0     209 13.50
 2020 219   114    68   20.0      4   1.97   2544   3681      0   1714   6225   7922      0    0.0  0.000   1697      0  0.000  0.000  0.208  0.000  0.000  0.000  0.000   1.16   0.00   0.21      0   1697     77.5   1.32   0.00   0.97    3.93    4.00    3.97    4.00    3.10    2.97    1.16    0.00      0      0      0       0     218 15.55
 2020 220   115    69   20.0      4   1.92   2487   3836      0   1717   6323   8136      0    0.0  0.000   1813      0  0.000  0.000  0.205  0.000  0.000  0.000  0.000   1.15   0.00   0.22      0   1813     77.3   1.32   0.00   0.98    3.95    4.00    3.97    4.00    3.10    2.97    1.17    0.00      0      0      0       0     226 17.90
 2020 221   116    70   20.0      5   1.87   2487   3836    232   1724   6323   8368   1855   12.5  0.028   2045      8  0.000  0.000  0.198  0.000  0.000  0.000  0.000   1.11  11.32   0.24      0   2045     75.3   1.32   0.00   0.99    3.99    4.00    3.98    4.00    3.10    2.98    1.17    0.00      0      0      0       0     235 17.03
 2020 222   117    71   20.0      5   1.82   2487   3836    394   1743   6323   8530   1855   21.2  0.046   2207      8  0.000  0.000  0.230  0.000  0.000  0.000  0.000   1.09  17.84   0.26      0   2207     73.4   1.32   0.00   1.00    4.00    4.00    4.00    4.00    3.12    3.00    1.19    0.00      0      0      0       0     244 18.91
 2020 223   118    72   20.0      5   1.78   2487   3836    539   1757   6323   8675   1855   29.1  0.062   2352      8  0.201  0.468  0.235  0.000  0.000  0.000  0.000   1.08  22.91   0.27      0   2352     71.4   1.32   0.00   1.00    4.00    4.00    4.00    4.00    3.13    3.01    1.20    0.00      0      0      0       0     252 16.95
 2020 224   119    73   20.0      5   1.73   2487   3836    655   1759   6323   8792   1855   35.3  0.075   2469      8  0.522  0.682  0.241  0.000  0.000  0.000  0.000   1.06  26.55   0.28      0   2469     69.5   1.32   0.00   1.01    3.98    4.00    4.00    4.00    3.13    3.01    1.21    0.00      0      0      0       0     261 15.05
 2020 225   120    74   20.0      5   1.68   2487   3836    770   1755   6323   8906   1855   41.5  0.086   2583      8  0.545  0.697  0.243  0.000  0.000  0.000  0.000   1.04  29.80   0.29      0   2583     67.6   1.32   0.00   1.01    3.96    4.00    3.99    3.99    3.12    3.00    1.20    0.00      0      0      0       0     270 16.40
 2020 226   121    75   20.0      5   1.63   2487   3836    879   1750   6323   9015   1855   47.4  0.098   2693      8  0.600  0.734  0.244  0.000  0.000  0.000  0.000   1.03  32.65   0.30      0   2693     65.6   1.32   0.00   1.02    3.94    3.99    3.98    3.98    3.11    2.99    1.20    0.00      0      0      0       0     279 18.45
 2020 227   122    76   20.0      5   1.58   2487   3826    987   1741   6313   9114   1855   53.2  0.108   2801      8  0.614  0.743  0.247  0.000  0.000  0.000  0.000   1.01  35.25   0.31      0   2801     63.6   1.32   0.00   1.02    3.94    3.99    3.98    3.98    3.11    2.99    1.20    0.00      0      0      0       0     287 17.25
 2020 228   123    77   20.0      5   1.53   2487   3814   1091   1732   6302   9207   1855   58.8  0.119   2905      8  0.659  0.773  0.250  0.000  0.000  0.000  0.000   1.00  37.57   0.32      0   2905     61.5   1.32   0.00   1.02    3.94    3.99    3.98    3.98    3.11    2.99    1.20    0.00      0      0      0       0     296 17.15
 2020 229   124    78   20.0      5   1.47   2487   3788   1187   1724   6275   9276   1855   64.0  0.128   3000      8  0.754  0.836  0.251  0.000  0.000  0.000  0.000   0.99  39.56   0.32      0   3000     59.2   1.32   0.00   1.02    3.94    3.99    3.98    3.98    3.11    2.99    1.20    0.00      0      0      0       0     305 17.15
 2020 230   125    79   20.0      5   1.41   2487   3762   1279   1715   6249   9342   1855   69.0  0.137   3093      8  0.791  0.861  0.253  0.000  0.000  0.000  0.000   0.99  41.36   0.33      0   3093     56.8   1.32   0.00   1.02    3.94    3.99    3.98    3.98    3.11    2.99    1.20    0.00      0      0      0       0     313 15.25
 2020 231   126    80   20.0      5   1.38   2487   3791   1442   1721   6278   9534   1855   77.8  0.151   3256      8  0.000  0.000  0.244  0.000  0.000  0.000  0.000   0.96  44.30   0.34      0   3256     55.3   1.32   0.00   1.03    4.00    4.00    4.00    3.96    3.09    2.98    1.21    0.00      0      0      0       0     322 15.90
 2020 232   127    81   20.0      5   1.34   2487   3794   1606   1714   6282   9701   1855   86.6  0.166   3419      8  0.000  0.000  0.253  0.000  0.000  0.000  0.000   0.93  46.96   0.35      0   3419     53.8   1.32   0.00   1.03    3.99    3.99    3.98    3.94    3.08    2.96    1.20    0.00      0      0      0       0     331 16.55
 2020 233   128    82   20.0      5   1.30   2487   3812   1769   1714   6300   9882   1855   95.4  0.179   3582      8  0.000  0.000  0.270  0.000  0.000  0.000  0.000   0.91  49.38   0.36      0   3582     52.3   1.32   0.00   1.04    3.97    4.00    4.00    3.92    3.06    2.95    1.21    0.00      0      0      0       0     339 15.35
 2020 234   129    83   20.0      5   1.25   2487   3777   1866   1706   6264   9943   1855  100.6  0.188   3679      8  0.740  0.827  0.285  0.000  0.000  0.000  0.000   0.90  50.71   0.37      0   3679     50.4   1.32   0.00   1.04    3.97    4.00    4.00    3.92    3.06    2.95    1.21    0.00      0      0      0       0     348 16.35
 2020 235   130    84   20.0      5   1.20   2487   3734   1957   1697   6221   9992   1855  105.5  0.196   3770      8  0.802  0.868  0.293  0.000  0.000  0.000  0.000   0.89  51.90   0.38      0   3770     48.3   1.32   0.00   1.04    3.97    4.00    4.00    3.92    3.06    2.95    1.21    0.00      0      0      0       0     356 16.65
 2020 236   131    85   20.0      5   1.15   2487   3684   2045   1689   6171  10029   1855  110.2  0.204   3858      8  0.840  0.894  0.290  0.000  0.000  0.000  0.000   0.89  53.00   0.38      0   3858     46.3   1.32   0.00   1.04    3.97    4.00    4.00    3.92    3.06    2.95    1.21    0.00      0      0      0       0     365 17.92
 2020 237   132    86   20.0      5   1.10   2487   3630   2130   1680   6117  10060   1855  114.8  0.212   3943      8  0.873  0.916  0.286  0.000  0.000  0.000  0.000   0.88  54.01   0.39      0   3943     44.3   1.32   0.00   1.04    3.97    4.00    4.00    3.92    3.06    2.95    1.21    0.00      0      0      0       0     373 17.64
 2020 238   133    87   20.0      5   1.07   2487   3631   2293   1673   6118  10225   1855  123.6  0.224   4106      8  0.000  0.000  0.275  0.000  0.000  0.000  0.000   0.86  55.84   0.40      0   4106     43.0   1.32   0.00   1.04    3.95    3.98    3.98    3.90    3.05    2.93    1.20    0.00      0      0      0       0     382 18.25
 2020 239   134    88   20.0      5   1.04   2487   3632   2456   1665   6119  10389   1855  132.4  0.236   4269      8  0.000  0.140  0.285  0.000  0.000  0.000  0.000   0.84  57.53   0.41      0   4269     41.8   1.32   0.00   1.05    3.94    3.97    3.96    3.88    3.03    2.92    1.20    0.00      0      0      0       0     390 16.08
 2020 240   135    89   20.0      5   1.00   2487   3587   2548   1656   6074  10436   1855  137.4  0.244   4362      8  0.790  0.861  0.302  0.000  0.000  0.000  0.000   0.83  58.43   0.42      0   4362     40.2   1.32   0.00   1.05    3.94    3.97    3.96    3.88    3.03    2.92    1.20    0.00      0      0      0       0     398 17.87
 2020 241   136    90   20.0      5   0.96   2487   3530   2634   1648   6018  10465   1855  142.0  0.252   4447      8  0.864  0.910  0.308  0.000  0.000  0.000  0.000   0.83  59.23   0.42      0   4447     38.4   1.32   0.00   1.05    3.94    3.97    3.96    3.88    3.03    2.92    1.20    0.00      0      0      0       0     407 18.16
 2020 242   137    91   20.0      5   0.93   2487   3443   2797   1640   5930  10541   1855  150.8  0.265   4611      8  0.000  0.000  0.301  0.000  0.000  0.000  0.000   0.82  60.67   0.44      0   4611     37.3   1.32   0.00   1.05    3.94    3.97    3.96    3.88    3.03    2.92    1.20    0.00      0      0      0       0     415 12.90
 2020 243   138    92   20.0      5   0.90   2487   3408   2961   1632   5895  10669   1855  159.6  0.277   4774      8  0.000  0.000  0.308  0.000  0.000  0.000  0.000   0.80  62.02   0.45      0   4774     36.2   1.32   0.00   1.05    3.94    3.97    3.96    3.88    3.03    2.92    1.20    0.00      0      0      0       0     423 16.65
 2020 244   139    93   20.0      5   0.87   2487   3384   3124   1624   5871  10809   1855  168.4  0.289   4937      8  0.000  0.000  0.312  0.000  0.000  0.000  0.000   0.79  63.27   0.46      0   4937     35.1   1.32   0.00   1.05    3.94    3.97    3.96    3.88    3.03    2.92    1.20    0.00      0      0      0       0     431 11.30
 2020 245   140    94   20.0      5   0.85   2487   3304   3287   1615   5792  10892   1855  177.2  0.302   5100      8  0.000  0.000  0.322  0.000  0.000  0.000  0.000   0.77  64.45   0.47      0   5100     34.1   1.32   0.00   1.05    3.94    3.97    3.96    3.88    3.03    2.92    1.20    0.00      0      0      0       0     439 12.50
 2020 246   141    95   20.0      5   0.82   2487   3271   3450   1607   5759  11023   1855  186.0  0.313   5264      8  0.000  0.000  0.340  0.000  0.000  0.000  0.000   0.76  65.55   0.48      0   5264     33.0   1.32   0.00   1.05    3.94    3.97    3.96    3.88    3.03    2.92    1.20    0.00      0      0      0       0     447 14.45
 2020 247   142    96   20.0      5   0.80   2487   3235   3614   1599   5723  11150   1855  194.8  0.324   5427      8  0.000  0.000  0.344  0.000  0.000  0.000  0.000   0.74  66.59   0.49      0   5427     32.0   1.32   0.00   1.05    3.94    3.97    3.96    3.88    3.03    2.92    1.20    0.00      0      0      0       0     455 11.75
 2020 248   143    97   20.0      5   0.77   2487   3190   3777   1591   5677  11267   1855  203.6  0.335   5590      8  0.000  0.000  0.360  0.000  0.000  0.000  0.000   0.73  67.56   0.50      0   5590     31.0   1.32   0.00   1.05    3.94    3.97    3.96    3.88    3.03    2.92    1.20    0.00      0      0      0       0     463 11.90
 2020 249   144    98   20.0      5   0.75   2487   3134   3940   1583   5621  11375   1855  212.4  0.346   5753      8  0.000  0.000  0.373  0.000  0.000  0.000  0.000   0.72  68.48   0.51      0   5753     30.0   1.32   0.00   1.05    3.94    3.97    3.96    3.88    3.03    2.92    1.20    0.00      0      0      0       0     471 16.75
 2020 250   145    99   20.0      5   0.72   2487   3081   4087   1575   5568  11469   1855  220.3  0.356   5900      8  0.000  0.000  0.383  0.000  0.000  0.000  0.000   0.71  69.27   0.51      0   5900     29.0   1.32   0.00   1.05    3.94    3.97    3.96    3.88    3.03    2.92    1.20    0.00      0      0      0       0     479 19.50
[...]
 2020 220   115    69   20.0      4   1.06   1607   1974      0   1355   3580   5083      0    0.0  0.000   1503      0  0.000  0.000  0.115  0.000  0.000  0.000  0.000   1.47   0.00   0.30      0   1503     65.8   0.86   0.00   0.84    3.91    3.90    3.74    1.43    3.51    1.60    0.33    0.00      0      0      0       0     278 17.90
 2020 221   116    70   20.0      5   1.04   1607   1974    180   1359   3580   5264   1917    9.4  0.034   1683      8  0.000  0.000  0.105  0.000  0.000  0.000  0.000   1.42  10.70   0.32      0   1683     65.0   0.86   0.00   0.85    3.94    3.93    3.75    1.42    3.49    1.61    0.34    0.00      0      0      0       0     285 17.03
 2020 222   117    71   20.0      5   1.03   1607   1974    348   1364   3580   5431   1917   18.1  0.064   1851      8  0.000  0.000  0.121  0.000  0.000  0.000  0.000   1.38  18.79   0.34      0   1851     64.0   0.86   0.00   0.86    3.98    3.96    3.77    1.41    3.47    1.62    0.35    0.00      0      0      0       0     291 18.91
 2020 223   118    72   20.0      5   1.01   1607   1974    517   1362   3580   5600   1917   26.9  0.092   2020      8  0.000  0.000  0.127  0.000  0.000  0.000  0.000   1.34  25.57   0.36      0   2020     63.0   0.86   0.00   0.87    3.98    3.96    3.76    1.40    3.45    1.62    0.35    0.00      0      0      0       0     298 16.95
 2020 224   119    73   20.0      5   0.99   1607   1974    685   1364   3580   5769   1917   35.7  0.119   2188      8  0.000  0.000  0.134  0.000  0.000  0.000  0.000   1.30  31.31   0.38      0   2188     61.9   0.86   0.00   0.88    4.00    3.99    3.76    1.39    3.43    1.63    0.36    0.00      0      0      0       0     305 15.05
 2020 225   120    74   20.0      5   0.98   1607   1974    854   1358   3580   5937   1917   44.5  0.144   2357      8  0.000  0.000  0.141  0.000  0.000  0.000  0.000   1.25  36.23   0.40      0   2357     60.8   0.86   0.00   0.89    3.98    3.97    3.75    1.39    3.41    1.62    0.36    0.00      0      0      0       0     312 16.40
 2020 226   121    75   20.0      5   0.96   1607   1974   1023   1356   3580   6106   1917   53.3  0.167   2526      8  0.000  0.033  0.148  0.000  0.000  0.000  0.000   1.21  40.49   0.41      0   2526     59.7   0.86   0.00   0.90    3.96    3.97    3.74    1.38    3.40    1.62    0.36    0.00      0      0      0       0     319 18.45
 2020 227   122    76   20.0      5   0.94   1607   1956   1191   1349   3562   6257   1917   62.1  0.190   2694      8  0.000  0.164  0.157  0.000  0.000  0.000  0.000   1.17  44.21   0.43      0   2694     58.5   0.86   0.00   0.90    3.96    3.97    3.74    1.38    3.40    1.62    0.36    0.00      0      0      0       0     325 17.25
 2020 228   123    77   20.0      5   0.92   1607   1947   1360   1342   3554   6417   1917   70.9  0.212   2863      8  0.000  0.332  0.166  0.000  0.000  0.000  0.000   1.13  47.50   0.45      0   2863     57.3   0.86   0.00   0.90    3.96    3.97    3.74    1.38    3.40    1.62    0.36    0.00      0      0      0       0     332 17.15
 2020 229   124    78   20.0      5   0.90   1607   1948   1504   1336   3554   6561   1917   78.4  0.229   3007      8  0.271  0.515  0.174  0.000  0.000  0.000  0.000   1.09  50.01   0.46      0   3007     56.1   0.86   0.00   0.90    3.94    3.95    3.72    1.37    3.38    1.61    0.36    0.00      0      0      0       0     339 17.15
 2020 230   125    79   20.0      5   0.88   1607   1951   1637   1331   3558   6698   1917   85.4  0.244   3140      8  0.377  0.585  0.181  0.000  0.000  0.000  0.000   1.06  52.14   0.47      0   3140     54.8   0.86   0.00   0.91    3.93    3.94    3.71    1.37    3.36    1.61    0.36    0.00      0      0      0       0     346 15.25
 2020 231   126    80   20.0      5   0.86   1607   1953   1806   1325   3559   6868   1917   94.2  0.263   3309      8  0.000  0.000  0.185  0.000  0.000  0.000  0.000   1.02  54.58   0.48      0   3309     53.5   0.86   0.00   0.92    3.91    3.93    3.69    1.36    3.35    1.60    0.35    0.00      0      0      0       0     352 15.90
 2020 232   127    81   20.0      5   0.84   1607   1916   1975   1318   3522   7000   1917  103.0  0.282   3478      8  0.000  0.000  0.196  0.000  0.000  0.000  0.000   1.00  56.78   0.50      0   3478     52.2   0.86   0.00   0.92    3.91    3.93    3.69    1.36    3.35    1.60    0.35    0.00      0      0      0       0     359 16.55
 2020 233   128    82   20.0      5   0.82   1607   1901   2143   1312   3508   7154   1917  111.8  0.300   3646      8  0.000  0.000  0.213  0.000  0.000  0.000  0.000   0.97  58.78   0.51      0   3646     50.9   0.86   0.00   0.92    3.91    3.93    3.69    1.36    3.35    1.60    0.35    0.00      0      0      0       0     365 15.35
 2020 234   129    83   20.0      5   0.80   1607   1863   2312   1305   3470   7285   1917  120.6  0.317   3815      8  0.000  0.000  0.228  0.000  0.000  0.000  0.000   0.94  60.60   0.52      0   3815     49.6   0.86   0.00   0.92    3.91    3.93    3.69    1.36    3.35    1.60    0.35    0.00      0      0      0       0     372 16.35
 2020 235   130    84   20.0      5   0.77   1607   1846   2454   1299   3452   7409   1917  128.0  0.331   3957      8  0.290  0.527  0.253  0.000  0.000  0.000  0.000   0.91  62.01   0.53      0   3957     48.2   0.86   0.00   0.92    3.91    3.93    3.69    1.36    3.35    1.60    0.35    0.00      0      0      0       0     379 16.65
 2020 236   131    85   20.0      5   0.75   1607   1807   2575   1292   3414   7492   1917  134.3  0.344   4078      8  0.516  0.678  0.267  0.000  0.000  0.000  0.000   0.89  63.14   0.54      0   4078     46.9   0.86   0.00   0.92    3.91    3.93    3.69    1.36    3.35    1.60    0.35    0.00      0      0      0       0     385 17.92
 2020 237   132    86   20.0      5   0.73   1607   1763   2685   1286   3370   7558   1917  140.1  0.355   4188      8  0.629  0.753  0.282  0.000  0.000  0.000  0.000   0.88  64.11   0.55      0   4188     45.4   0.86   0.00   0.92    3.91    3.93    3.69    1.36    3.35    1.60    0.35    0.00      0      0      0       0     392 17.64
 2020 238   133    87   20.0      5   0.71   1607   1715   2854   1279   3322   7679   1917  148.9  0.372   4357      8  0.000  0.000  0.279  0.000  0.000  0.000  0.000   0.86  65.50   0.57      0   4357     44.1   0.86   0.00   0.92    3.91    3.93    3.69    1.36    3.35    1.60    0.35    0.00      0      0      0       0     398 18.25
 2020 239   134    88   20.0      5   0.69   1607   1664   3022   1273   3271   7796   1917  157.7  0.388   4526      8  0.000  0.000  0.304  0.000  0.000  0.000  0.000   0.84  66.79   0.58      0   4526     42.8   0.86   0.00   0.92    3.91    3.93    3.69    1.36    3.35    1.60    0.35    0.00      0      0      0       0     404 16.08
 2020 240   135    89   20.0      5   0.67   1607   1607   3191   1266   3213   7908   1917  166.5  0.404   4694      8  0.000  0.000  0.319  0.000  0.000  0.000  0.000   0.81  67.98   0.59      0   4694     41.5   0.86   0.00   0.92    3.91    3.93    3.69    1.36    3.35    1.60    0.35    0.00      0      0      0       0     411 17.87
 2020 241   136    90   20.0      5   0.65   1607   1543   3360   1260   3149   8012   1917  175.3  0.419   4863      8  0.000  0.097  0.338  0.000  0.000  0.000  0.000   0.81  69.09   0.61      0   4863     40.3   0.86   0.00   0.92    3.91    3.93    3.69    1.36    3.35    1.60    0.35    0.00      0      0      0       0     417 18.16
 2020 242   137    91   20.0      5   0.63   1607   1427   3529   1254   3034   8065   1917  184.1  0.437   5032      8  0.000  0.000  0.338  0.000  0.000  0.000  0.000   0.81  70.13   0.62      0   5032     39.0   0.86   0.00   0.92    3.91    3.93    3.69    1.36    3.35    1.60    0.35    0.00      0      0      0       0     423 12.90
 2020 243   138    92   20.0      5   0.61   1607   1348   3697   1247   2954   8155   1917  192.9  0.453   5200      8  0.000  0.000  0.342  0.000  0.000  0.000  0.000   0.80  71.10   0.64      0   5200     37.8   0.86   0.00   0.92    3.91    3.93    3.69    1.36    3.35    1.60    0.35    0.00      0      0      0       0     430 16.65
 2020 244   139    93   20.0      5   0.59   1607   1279   3866   1241   2885   8254   1917  201.7  0.468   5369      8  0.000  0.000  0.331  0.000  0.000  0.000  0.000   0.81  72.00   0.65      0   5369     36.7   0.86   0.00   0.92    3.91    3.93    3.69    1.36    3.35    1.60    0.35    0.00      0      0      0       0     436 11.30
 2020 245   140    94   20.0      5   0.57   1607   1171   4035   1235   2778   8316   1917  210.5  0.485   5538      8  0.000  0.000  0.317  0.000  0.000  0.000  0.000   0.81  72.86   0.67      0   5538     35.6   0.86   0.00   0.92    3.91    3.93    3.69    1.36    3.35    1.60    0.35    0.00      0      0      0       0     442 12.50
 2020 246   141    95   20.0      5   0.55   1607   1100   4203   1229   2707   8413   1917  219.3  0.500   5706      8  0.000  0.000  0.323  0.000  0.000  0.000  0.000   0.80  73.66   0.68      0   5706     34.5   0.86   0.00   0.92    3.91    3.93    3.69    1.36    3.35    1.60    0.35    0.00      0      0      0       0     448 14.45
 2020 247   142    96   20.0      5   0.54   1607   1030   4372   1223   2636   8511   1917  228.1  0.514   5875      8  0.000  0.000  0.302  0.000  0.000  0.000  0.000   0.79  74.42   0.69      0   5875     33.5   0.86   0.00   0.92    3.91    3.93    3.69    1.36    3.35    1.60    0.35    0.00      0      0      0       0     454 11.75
 2020 248   143    97   20.0      5   0.52   1607    953   4541   1217   2560   8604   1917  236.9  0.528   6044      8  0.000  0.000  0.311  0.000  0.000  0.000  0.000   0.78  75.13   0.70      0   6044     32.5   0.86   0.00   0.92    3.91    3.93    3.69    1.36    3.35    1.60    0.35    0.00      0      0      0       0     460 11.90
 2020 249   144    98   20.0      5   0.51   1607    877   4709   1211   2484   8697   1917  245.7  0.542   6213      8  0.000  0.000  0.320  0.000  0.000  0.000  0.000   0.77  75.81   0.71      0   6213     31.5   0.86   0.00   0.92    3.91    3.93    3.69    1.36    3.35    1.60    0.35    0.00      0      0      0       0     467 16.75
 2020 250   145    99   20.0      5   0.49   1607    840   4784   1204   2447   8734   1917  249.5  0.548   6287      8  0.000  0.000  0.330  0.000  0.000  0.000  0.000   0.77  76.09   0.72      0   6287     30.6   0.86   0.00   0.92    3.91    3.93    3.69    1.36    3.35    1.60    0.35    0.00      0      0      0       0     473 19.50
 2020 251   146   100   20.0      5   0.48   1607    840   4860   1198   2447   8810   1917  253.5  0.552   6363      8  0.000  0.000  0.289  0.000  0.000  0.000  0.000   0.77  76.38   0.72      0   6363     29.7   0.86   0.00   0.92    3.91    3.93    3.69    1.36    3.35    1.60    0.35    0.00      0      0      0       0     479 16.00
 2020 252   147   101   20.0      5   0.43   1607    840   4871   1192   2447   8821   1917  254.1  0.552   6374      8  0.000  0.000  0.277  0.000  0.000  0.000  0.000   0.78  76.42   0.72      0   6374     26.6   0.86   0.00   0.92    3.91    3.93    3.69    1.36    3.35    1.60    0.35    0.00      0      0      0       0     485  2.85
 2020 253   148   102   20.0      5   0.35   1607    840   4871   1186   2447   8821   1917  254.1  0.552   6374      8  0.000  0.000  0.255  0.000  0.000  0.000  0.000   0.89  76.42   0.72      0   6374     21.7   0.86   0.00   0.92    3.91    3.93    3.69    1.36    3.35    1.60    0.35    0.00      0      0      0       0     491  0.00
 2020 254   149   103   20.0      5   0.34   1607    840   4888   1181   2447   8838   1917  255.0  0.553   6391      8  0.000  0.000  0.153  0.000  0.000  0.000  0.000   0.96  76.48   0.72      0   6391     21.3   0.86   0.00   0.92    3.91    3.93    3.69    1.36    3.35    1.60    0.35    0.00      0      0      0       0     497  1.73
 2020 255   150   104   20.0      5   0.34   1607    840   4960   1175   2447   8911   1917  258.8  0.557   6464      8  0.000  0.000  0.110  0.000  0.000  0.000  0.000   0.98  76.74   0.73      0   6464     21.0   0.86   0.00   0.92    3.91    3.93    3.69    1.36    3.35    1.60    0.35    0.00      0      0      0       0     502  7.45
 2020 256   151   105   20.0      5   0.33   1607    840   5038   1169   2447   8988   1917  262.8  0.561   6541      8  0.000  0.000  0.097  0.000  0.000  0.000  0.000   0.98  77.02   0.73      0   6541     20.8   0.86   0.00   0.92    3.91    3.93    3.69    1.36    3.35    1.60    0.35    0.00      0      0      0       0     508 10.70
 2020 257   152   106   20.0      5   0.33   1607    840   5115   1163   2447   9065   1917  266.8  0.564   6618      8  0.000  0.000  0.089  0.000  0.000  0.000  0.000   0.98  77.29   0.73      0   6618     20.5   0.86   0.00   0.92    3.91    3.93    3.69    1.36    3.35    1.60    0.35    0.00      0      0      0       0     514  9.73
 2020 258   153   107   20.0      5   0.33   1607    840   5181   1157   2447   9132   1917  270.3  0.567   6685      8  0.000  0.000  0.085  0.000  0.000  0.000  0.000   0.97  77.51   0.73      0   6685     20.3   0.86   0.00   0.92    3.91    3.93    3.69    1.36    3.35    1.60    0.35    0.00      0      0      0       0     520  9.60
 2020 259   154   108   20.0      5   0.32   1607    840   5250   1151   2447   9200   1917  273.9  0.571   6753      8  0.000  0.000  0.083  0.000  0.000  0.000  0.000   0.96  77.74   0.73      0   6753     20.1   0.86   0.00   0.92    3.91    3.93    3.69    1.36    3.35    1.60    0.35    0.00      0      0      0       0     526 10.40
 2020 260   155   109   20.0      5   0.32   1607    840   5315   1146   2447   9265   1917  277.3  0.574   6819      8  0.000  0.000  0.083  0.000  0.000  0.000  0.000   0.95  77.96   0.74      0   6819     19.9   0.86   0.00   0.92    3.91    3.93    3.69    1.36    3.35    1.60    0.35    0.00      0      0      0       0     531  9.60
 2020 261   156   110   20.0      5   0.32   1607    840   5378   1140   2447   9328   1917  280.5  0.577   6881      8  0.000  0.000  0.088  0.000  0.000  0.000  0.000   0.95  78.16   0.74      0   6881     19.7   0.86   0.00   0.92    3.91    3.93    3.69    1.36    3.35    1.60    0.35    0.00      0      0      0       0     537  9.50
 2020 262   157   111   20.0      5   0.31   1607    840   5436   1134   2447   9386   1917  283.6  0.579   6939      8  0.000  0.000  0.079  0.000  0.000  0.000  0.000   0.95  78.34   0.74      0   6939     19.5   0.86   0.00   0.92    3.91    3.93    3.69    1.36    3.35    1.60    0.35    0.00      0      0      0       0     543 10.35
 2020 263   158   112   20.0      5   0.31   1607    840   5496   1128   2447   9446   1917  286.7  0.582   6999      8  0.000  0.000  0.074  0.000  0.000  0.000  0.000   0.94  78.52   0.74      0   6999     19.3   0.86   0.00   0.92    3.91    3.93    3.69    1.36    3.35    1.60    0.35    0.00      0      0      0       0     549 10.90
 2020 264   159   113   20.0      5   0.31   1607    840   5558   1123   2447   9508   1917  289.9  0.585   7061      8  0.000  0.000  0.071  0.000  0.000  0.000  0.000   0.93  78.71   0.74      0   7061     19.1   0.86   0.00   0.92    3.91    3.93    3.69    1.36    3.35    1.60    0.35    0.00      0      0      0       0     554 14.45
 2020 265   160   114   20.0      5   0.30   1607    840   5620   1117   2447   9570   1917  293.2  0.587   7123      8  0.000  0.000  0.071  0.000  0.000  0.000  0.000   0.92  78.90   0.74      0   7123     19.0   0.86   0.00   0.92    3.91    3.93    3.69    1.36    3.35    1.60    0.35    0.00      0      0      0       0     560 11.95
 2020 266   161   115   20.0      5   0.30   1607    840   5683   1112   2447   9633   1917  296.5  0.590   7186      8  0.000  0.000  0.072  0.000  0.000  0.000  0.000   0.91  79.08   0.75      0   7186     18.8   0.86   0.00   0.92    3.91    3.93    3.69    1.36    3.35    1.60    0.35    0.00      0      0      0       0     565 11.25
 2020 267   162   116   20.0      5   0.30   1607    840   5741   1106   2447   9691   1917  299.5  0.592   7244      8  0.000  0.000  0.076  0.000  0.000  0.000  0.000   0.91  79.25   0.75      0   7244     18.6   0.86   0.00   0.92    3.91    3.93    3.69    1.36    3.35    1.60    0.35    0.00      0      0      0       0     571 13.10
 2020 268   163   117   20.0      5   0.30   1607    840   5803   1101   2447   9753   1917  302.7  0.595   7306      8  0.000  0.000  0.064  0.000  0.000  0.000  0.000   0.91  79.43   0.75      0   7306     18.5   0.86   0.00   0.92    3.91    3.93    3.69    1.36    3.35    1.60    0.35    0.00      0      0      0       0     577 14.56
 2020 269   164   118   20.0      5   0.29   1607    840   5866   1095   2447   9816   1917  306.0  0.598   7369      8  0.000  0.000  0.057  0.000  0.000  0.000  0.000   0.90  79.60   0.75      0   7369     18.3   0.86   0.00   0.92    3.91    3.93    3.69    1.36    3.35    1.60    0.35    0.00      0      0      0       0     582 15.25
 2020 270   165   119   20.0      5   0.29   1607    840   5921   1090   2447   9871   1917  308.8  0.600   7424      8  0.000  0.000  0.053  0.000  0.000  0.000  0.000   0.90  79.75   0.75      0   7424     18.2   0.86   0.00   0.92    3.91    3.93    3.69    1.36    3.35    1.60    0.35    0.00      0      0      0       0     588 14.70
 2020 271   166   120   20.0      5   0.29   1607    840   5921   1090   2447   9871   1917  308.8  0.600   7424      8  0.000  0.000  0.049  0.000  0.000  0.000  0.000   0.90  79.75   0.75      0   7424     18.2   0.86   0.00   0.92    3.91    3.93    3.69    1.36    3.35    1.60    0.35    0.00      0      0      0       0     588  9.10
 2020 272   167   121   20.0      5   0.29   1607    840   5921   1090   2447   9871   1917  308.8  0.600   7424      8  0.000  0.000  0.049  0.000  0.000  0.000  0.000   0.90  79.75   0.75      0   7424     18.2   0.86   0.00   0.92    3.91    3.93    3.69    1.36    3.35    1.60    0.35    0.00      0      0      0       0     588  4.82
 2020 273   168   122   20.0      5   0.29   1607    840   5921   1090   2447   9871   1917  308.8  0.600   7424      8  0.000  0.000  0.049  0.000  0.000  0.000  0.000   0.90  79.75   0.75      0   7424     18.2   0.86   0.00   0.92    3.91    3.93    3.69    1.36    3.35    1.60    0.35    0.00      0      0      0       0     588  8.98
 2020 274   169   123   20.0      5   0.29   1607    840   5921   1090   2447   9871   1917  308.8  0.600   7424      8  0.000  0.000  0.049  0.000  0.000  0.000  0.000   0.90  79.75   0.75      0   7424     18.2   0.86   0.00   0.92    3.91    3.93    3.69    1.36    3.35    1.60    0.35    0.00      0      0      0       0     588  8.37
 2020 275   170   124   20.0      5   0.29   1607    840   5921   1090   2447   9871   1917  308.8  0.600   7424      8  0.000  0.000  0.049  0.000  0.000  0.000  0.000   0.90  79.75   0.75      0   7424     18.2   0.86   0.00   0.92    3.91    3.93    3.69    1.36    3.35    1.60    0.35    0.00      0      0      0       0     588  4.85
 2020 276   171   125   20.0      5   0.29   1607    840   5921   1090   2447   9871   1917  308.8  0.600   7424      8  0.000  0.000  0.049  0.000  0.000  0.000  0.000   0.90  79.75   0.75      0   7424     18.2   0.86   0.00   0.92    3.91    3.93    3.69    1.36    3.35    1.60    0.35    0.00      0      0      0       0     588  7.79
 2020 277   172   126   20.0      5   0.29   1607    840   5921   1090   2447   9871   1917  308.8  0.600   7424      8  0.000  0.000  0.049  0.000  0.000  0.000  0.000   0.90  79.75   0.75      0   7424     18.2   0.86   0.00   0.92    3.91    3.93    3.69    1.36    3.35    1.60    0.35    0.00      0      0      0       0     588  0.00
