*GROWTH ASPECTS OUTPUT FILE

*DSSAT Cropping System Model Ver. 4.7.5.035 -develop  JUN 14, 2021 14:17:00

*RUN   1        : 20 IRRIG, PETPEN NO KCB.. MZCER047 KSRT2001    1
 MODEL          : MZCER047 - Maize
 EXPERIMENT     : KSRT2001 SB ARM 2020 KS, IRRIGATED
 DATA PATH      :
 TREATMENT  1   : 20 IRRIG, PETPEN NO KCB.. MZCER047
  
!                                                                                                                                                                                                                                      Root Dens. (cm/cm3) by soil depth (cm):
!                                                                                                                                                                                                                                      0-5    5-15   15-29   29-43   43-53   53-64  64-132 132-201
@YEAR DOY   DAS   DAP   L#SD   GSTD   LAID   LWAD   SWAD   GWAD   RWAD   VWAD   CWAD   G#AD   GWGD   HIAD   PWAD   P#AD   WSPD   WSGD   NSTD   EWSD  PST1A  PST2A   KSTD   LN%D   SH%D   HIPD   PWDD   PWTD     SLAD   CHTD   CWID   RDPD    RL1D    RL2D    RL3D    RL4D    RL5D    RL6D    RL7D    RL8D   CDAD   LDAD   SDAD   SNW0C   SNW1C  DTTD
 2020 151    46     0    0.0      0   0.00      0      0      0      0      0      0      0    0.0  0.000      0      0  0.000  0.000  0.000  0.000  0.000  0.000  0.000   0.00   0.00   0.00      0      0      0.0   0.00   0.00   0.05    0.00    0.00    0.00    0.00    0.00    0.00    0.00    0.00      0      0      0       0       0 20.06
 2020 152    47     1    0.0      0   0.00      0      0      0      0      0      0      0    0.0  0.000      0      0  0.000  0.000  0.000  0.000  0.000  0.000  0.000   0.00   0.00   0.00      0      0      0.0   0.00   0.00   0.08    0.00    0.00    0.00    0.00    0.00    0.00    0.00    0.00      0      0      0       0       0 20.09
 2020 153    48     2    0.0      0   0.00      0      0      0      0      0      0      0    0.0  0.000      0      0  0.000  0.000  0.000  0.000  0.000  0.000  0.000   0.00   0.00   0.00      0      0      0.0   0.00   0.00   0.11    0.00    0.00    0.00    0.00    0.00    0.00    0.00    0.00      0      0      0       0       0 20.05
 2020 154    49     3    0.0      0   0.00      0      0      0      0      0      0      0    0.0  0.000      0      0  0.000  0.000  0.000  0.000  0.000  0.000  0.000   0.00   0.00   0.00      0      0      0.0   0.00   0.00   0.14    0.00    0.00    0.00    0.00    0.00    0.00    0.00    0.00      0      0      0       0       0 21.04
 2020 155    50     4    0.0      0   0.00      0      0      0      0      0      0      0    0.0  0.000      0      0  0.000  0.000  0.000  0.000  0.000  0.000  0.000   0.00   0.00   0.00      0      0      0.0   0.00   0.00   0.17    0.00    0.00    0.00    0.00    0.00    0.00    0.00    0.00      0      0      0       0       0 20.80
 2020 156    51     5    2.0      1   0.00     15     15      0     15     30     30      0    0.0  0.000      0      0  0.000  0.000  0.012  0.000  0.000  0.000  0.000   4.40   0.00   0.00      0      0     30.6   0.00   0.00   0.19    0.30    0.15    0.02    0.00    0.00    0.00    0.00    0.00      0      0      0       0       0 20.17
 2020 157    52     6    2.0      1   0.01     15     15      0     16     30     30      0    0.0  0.000      0      0  0.000  0.000  0.010  0.000  0.000  0.000  0.000   4.40   0.00   0.00      0      0     64.0   0.00   0.00   0.20    0.30    0.16    0.02    0.00    0.00    0.00    0.00    0.00      0      0      0       0       0 21.65
 2020 158    53     7    3.0      1   0.02     15     15      0     18     30     30      0    0.0  0.000      0      0  0.000  0.000  0.001  0.000  0.000  0.000  0.000   4.40   0.00   0.00      0      0    102.8   0.01   0.00   0.22    0.32    0.18    0.02    0.00    0.00    0.00    0.00    0.00      0      0      0       0       0 21.85
 2020 159    54     8    3.0      1   0.02     15     15      0     20     30     30      0    0.0  0.000      0      0  0.000  0.000  0.000  0.000  0.000  0.000  0.000   4.40   0.00   0.00      0      0    147.5   0.01   0.00   0.24    0.34    0.20    0.03    0.00    0.00    0.00    0.00    0.00      0      0      0       0       0 22.57
 2020 160    55     9    4.0      1   0.05     15     15      0     24     30     30      0    0.0  0.000      0      0  0.000  0.000  0.000  0.000  0.000  0.000  0.000   4.40   0.00   0.00      0      0    307.6   0.02   0.00   0.25    0.38    0.24    0.05    0.00    0.00    0.00    0.00    0.00      0      0      0       0       0 22.32
 2020 161    56    10    4.0      1   0.06     17     15      0     25     32     32      0    0.0  0.000      0      0  0.000  0.000  0.000  0.000  0.000  0.000  0.000   4.15   0.00   0.00      0      0    335.4   0.03   0.00   0.26    0.38    0.24    0.05    0.00    0.00    0.00    0.00    0.00      0      0      0       0       0  9.40
 2020 162    57    11    4.0      1   0.07     23     15      0     32     38     38      0    0.0  0.000      0      0  0.000  0.000  0.000  0.000  0.000  0.000  0.000   3.55   0.00   0.00      0      0    315.6   0.03   0.00   0.27    0.45    0.31    0.08    0.00    0.00    0.00    0.00    0.00      0      0      0       0       0 12.21
 2020 163    58    12    5.0      1   0.10     34     15      0     40     49     49      0    0.0  0.000      0      0  0.000  0.000  0.000  0.000  0.000  0.000  0.000   3.21   0.00   0.00      0      0    291.0   0.04   0.00   0.28    0.51    0.38    0.12    0.00    0.00    0.00    0.00    0.00      0      0      0       0       0 18.70
 2020 164    59    13    5.0      1   0.13     49     15      0     50     64     64      0    0.0  0.000      0      0  0.000  0.000  0.000  0.000  0.000  0.000  0.000   3.14   0.00   0.00      0      0    270.2   0.06   0.00   0.30    0.59    0.46    0.16    0.00    0.00    0.00    0.00    0.00      0      0      0       0       0 20.33
 2020 165    60    14    6.0      1   0.17     67     15      0     64     82     82      0    0.0  0.000      0      0  0.000  0.000  0.000  0.000  0.000  0.000  0.000   3.17   0.00   0.00      0      0    253.7   0.08   0.00   0.31    0.72    0.58    0.23    0.00    0.00    0.00    0.00    0.00      0      0      0       0       1 20.05
 2020 166    61    15    6.0      1   0.21     89     15      0     74    104    104      0    0.0  0.000      0      0  0.000  0.000  0.000  0.000  0.000  0.000  0.000   3.12   0.00   0.00      0      0    239.1   0.10   0.00   0.31    0.80    0.67    0.28    0.00    0.00    0.00    0.00    0.00      0      0      0       0       1 21.18
 2020 167    62    16    7.0      1   0.26    116     15      0     96    131    131      0    0.0  0.000      0      0  0.000  0.000  0.000  0.000  0.000  0.000  0.000   3.10   0.00   0.00      0      0    226.3   0.12   0.00   0.33    0.99    0.85    0.39    0.01    0.00    0.00    0.00    0.00      0      0      0       0       1 21.41
 2020 168    63    17    7.0      2   0.32    140     15      0    127    155    155      0    0.0  0.000      0      0  0.000  0.000  0.000  0.000  0.000  0.000  0.000   3.26   0.00   0.00      0      0    232.5   0.15   0.00   0.35    1.24    1.11    0.53    0.03    0.00    0.00    0.00    0.00      0      0      0       0       2 20.62
 2020 169    64    18    7.0      2   0.40    181     15      0    156    197    197      0    0.0  0.000      0      0  0.000  0.000  0.006  0.000  0.000  0.000  0.000   3.07   0.00   0.00      0      0    220.2   0.18   0.00   0.36    1.47    1.34    0.66    0.05    0.00    0.00    0.00    0.00      0      0      0       0       3 22.19
 2020 170    65    19    8.0      2   0.47    222     15      0    198    237    237      0    0.0  0.000      0      0  0.000  0.000  0.000  0.000  0.000  0.000  0.000   3.19   0.00   0.00      0      0    211.1   0.21   0.00   0.38    1.81    1.68    0.85    0.09    0.00    0.00    0.00    0.00      0      0      0       0       3 18.44
 2020 171    66    20    8.0      2   0.52    250     15      0    220    266    266      0    0.0  0.000      0      0  0.000  0.000  0.000  0.000  0.000  0.000  0.000   3.39   0.00   0.00      0      0    205.9   0.23   0.00   0.39    1.99    1.85    0.95    0.11    0.00    0.00    0.00    0.00      0      0      0       0       4 11.84
 2020 172    67    21    8.0      2   0.59    298     15      0    270    313    313      0    0.0  0.000      0      0  0.000  0.000  0.000  0.000  0.000  0.000  0.000   3.78   0.00   0.00      0      0    198.5   0.27   0.00   0.40    2.37    2.24    1.16    0.16    0.00    0.00    0.00    0.00      0      0      0       0       5 17.70
 2020 173    68    22    9.0      2   0.68    354     15      0    301    369    369      0    0.0  0.000      0      0  0.000  0.000  0.000  0.000  0.000  0.000  0.000   3.73   0.00   0.00      0      0    191.5   0.30   0.00   0.42    2.55    2.50    1.31    0.20    0.00    0.00    0.00    0.00      0      0      0       0       7 18.43
 2020 174    69    23    9.0      2   0.76    409     15      0    365    424    424      0    0.0  0.000      0      0  0.000  0.000  0.000  0.000  0.000  0.000  0.000   3.68   0.00   0.00      0      0    185.8   0.34   0.00   0.43    3.04    3.00    1.59    0.29    0.00    0.00    0.00    0.00      0      0      0       0       8 16.44
 2020 175    70    24   10.0      3   0.84    468     15      0    431    483    483      0    0.0  0.000      0      0  0.000  0.000  0.000  0.000  0.000  0.000  0.000   3.60   0.00   0.00      0      0    179.9   0.38   0.00   0.45    3.56    3.52    1.88    0.37    0.01    0.00    0.00    0.00      0      0      0       0      10 16.02
 2020 176    71    25   10.0      3   0.97    555     16      0    503    571    571      0    0.0  0.000      0      0  0.000  0.000  0.000  0.000  0.000  0.000  0.000   3.54   0.00   0.00      0      0    174.6   0.43   0.00   0.48    4.00    4.00    2.19    0.45    0.03    0.00    0.00    0.00      0      0      0       0      12 21.10
 2020 177    72    26   10.0      3   1.11    654     19      0    574    673    673      0    0.0  0.000      0      0  0.000  0.000  0.000  0.000  0.000  0.000  0.000   3.48   0.00   0.00      0      0    169.5   0.50   0.00   0.50    4.00    4.00    2.49    0.53    0.07    0.00    0.00    0.00      0      0      0       0      15 21.41
 2020 178    73    27   11.0      3   1.26    765     25      0    658    789    789      0    0.0  0.000      0      0  0.000  0.000  0.000  0.000  0.000  0.000  0.000   3.42   0.00   0.00      0      0    164.8   0.57   0.00   0.53    4.00    4.00    2.85    0.62    0.13    0.00    0.00    0.00      0      0      0       0      18 21.48
 2020 179    74    28   11.0      3   1.40    872     33      0    745    905    905      0    0.0  0.000      0      0  0.000  0.000  0.000  0.000  0.000  0.000  0.000   3.37   0.00   0.00      0      0    160.8   0.63   0.00   0.55    4.00    4.00    3.25    0.72    0.22    0.00    0.00    0.00      0      0      0       0      21 18.77
 2020 180    75    29   12.0      3   1.58   1009     48      0    830   1057   1057      0    0.0  0.000      0      0  0.000  0.000  0.000  0.000  0.000  0.000  0.000   3.32   0.00   0.00      0      0    156.5   0.71   0.00   0.57    4.00    4.00    3.68    0.83    0.29    0.03    0.00    0.00      0      0      0       0      25 19.08
 2020 181    76    30   12.0      3   1.77   1163     71      0    888   1235   1235      0    0.0  0.000      0      0  0.000  0.000  0.000  0.000  0.000  0.000  0.000   3.38   0.00   0.00      0      0    152.4   0.80   0.00   0.60    4.00    4.00    3.92    0.89    0.33    0.05    0.00    0.00      0      0      0       0      29 20.88
 2020 182    77    31   12.0      3   1.94   1302     98      0   1000   1400   1400      0    0.0  0.000      0      0  0.000  0.000  0.000  0.000  0.000  0.000  0.000   3.23   0.00   0.00      0      0    149.2   0.87   0.00   0.62    4.00    4.00    4.00    0.99    0.41    0.12    0.00    0.00      0      0      0       0      33 18.17
 2020 183    78    32   13.0      3   2.10   1437    131      0   1105   1568   1568      0    0.0  0.000      0      0  0.000  0.000  0.000  0.000  0.000  0.000  0.000   3.18   0.00   0.00      0      0    146.5   0.95   0.00   0.64    4.00    4.00    4.00    1.09    0.49    0.19    0.00    0.00      0      0      0       0      38 17.40
 2020 184    79    33   13.0      3   2.28   1589    176      0   1176   1764   1764      0    0.0  0.000      0      0  0.000  0.000  0.000  0.000  0.000  0.000  0.000   3.14   0.00   0.00      0      0    143.7   1.02   0.00   0.66    4.00    4.00    4.00    1.17    0.56    0.28    0.00    0.00      0      0      0       0      44 19.11
 2020 185    80    34   14.0      3   2.33   1658    200      0   1276   1858   1858      0    0.0  0.000      0      0  0.240  0.494  0.000  0.000  0.000  0.000  0.000   3.15   0.00   0.00      0      0    140.8   1.05   0.00   0.67    4.00    4.00    4.00    1.34    0.70    0.42    0.00    0.00      0      0      0       0      50 16.94
 2020 186    81    35   14.0      3   2.34   1707    220      0   1348   1927   1927      0    0.0  0.000      0      0  0.460  0.640  0.000  0.000  0.000  0.000  0.000   3.15   0.00   0.00      0      0    136.9   1.05   0.00   0.68    3.98    4.00    4.00    1.48    0.83    0.54    0.00    0.00      0      0      0       0      56 16.75
 2020 187    82    36   14.0      3   2.35   1762    246      0   1376   2008   2008      0    0.0  0.000      0      0  0.378  0.586  0.000  0.000  0.000  0.000  0.000   3.09   0.00   0.00      0      0    133.6   1.06   0.00   0.69    3.96    4.00    4.00    1.54    0.89    0.61    0.00    0.00      0      0      0       0      63 16.30
 2020 188    83    37   15.0      3   2.30   1790    262      0   1417   2051   2051      0    0.0  0.000      0      0  0.678  0.786  0.000  0.000  0.000  0.000  0.000   3.12   0.00   0.00      0      0    128.8   1.06   0.00   0.69    3.94    4.00    4.00    1.63    0.99    0.71    0.00    0.00      0      0      0       0      70 16.15
 2020 189    84    38   15.0      3   2.24   1813    276      0   1441   2088   2088      0    0.0  0.000      0      0  0.772  0.848  0.000  0.000  0.000  0.000  0.000   3.12   0.00   0.00      0      0    123.6   1.06   0.00   0.70    3.92    4.00    4.00    1.70    1.07    0.78    0.00    0.00      0      0      0       0      77 18.37
 2020 190    85    39   15.0      3   2.17   1830    288      0   1455   2118   2118      0    0.0  0.000      0      0  0.841  0.894  0.000  0.000  0.000  0.000  0.000   3.11   0.00   0.00      0      0    118.3   1.06   0.00   0.71    3.90    4.00    4.00    1.74    1.12    0.84    0.00    0.00      0      0      0       0      84 20.24
 2020 191    86    40   16.0      3   2.10   1851    305      0   1468   2156   2156      0    0.0  0.000      0      0  0.801  0.868  0.000  0.000  0.000  0.000  0.000   3.06   0.00   0.00      0      0    113.5   1.06   0.00   0.71    3.88    4.00    4.00    1.79    1.19    0.90    0.00    0.00      0      0      0       0      84 19.10
 2020 192    87    41   16.0      3   2.05   1875    327      0   1468   2202   2202      0    0.0  0.000      0      0  0.767  0.845  0.000  0.000  0.000  0.000  0.000   3.00   0.00   0.00      0      0    109.1   1.06   0.00   0.72    3.86    3.98    4.00    1.80    1.21    0.93    0.00    0.00      0      0      0       0      84 18.85
 2020 193    88    42   17.0      3   2.00   1912    347      0   1464   2259   2259      0    0.0  0.000      0      0  0.844  0.897  0.000  0.000  0.000  0.000  0.000   3.16   0.00   0.00      0      0    104.6   1.06   0.00   0.72    3.84    3.96    3.99    1.80    1.22    0.94    0.00    0.00      0      0      0       0      91 18.27
 2020 194    89    43   17.0      3   1.94   1933    372      0   1459   2305   2305      0    0.0  0.000      0      0  0.854  0.903  0.000  0.000  0.000  0.000  0.000   3.10   0.00   0.00      0      0    100.2   1.06   0.00   0.73    3.82    3.94    3.98    1.80    1.22    0.94    0.00    0.00      0      0      0       0      91 18.19
 2020 195    90    44   17.0      3   1.86   1945    392      0   1459   2338   2338      0    0.0  0.000      0      0  0.880  0.921  0.000  0.000  0.000  0.000  0.000   3.05   0.00   0.00      0      0     95.9   1.06   0.00   0.73    3.80    3.92    3.98    1.81    1.25    0.97    0.00    0.00      0      0      0       0      91 17.20
 2020 196    91    45   18.0      3   1.80   1958    416      0   1454   2374   2375      0    0.0  0.000      1      0  0.848  0.899  0.000  0.000  0.000  0.000  0.000   3.01   0.00   0.00      0      1     91.9   1.06   0.00   0.74    3.78    3.90    3.97    1.80    1.26    0.98    0.00    0.00      0      0      0       0      91 17.95
 2020 197    92    46   18.0      3   1.74   1969    441      0   1452   2410   2412      0    0.0  0.000      2      0  0.831  0.888  0.000  0.000  0.000  0.000  0.000   2.96   0.00   0.00      0      2     88.2   1.06   0.00   0.74    3.76    3.88    3.95    1.80    1.29    1.01    0.00    0.00      0      0      0       0      91 15.55
 2020 198    93    47   18.0      3   1.67   1978    462      0   1451   2439   2443      0    0.0  0.000      3      0  0.871  0.914  0.000  0.000  0.000  0.000  0.000   2.93   0.00   0.00      0      3     84.4   1.06   0.00   0.75    3.74    3.86    3.93    1.81    1.33    1.05    0.01    0.00      0      0      0       0      91 17.35
 2020 199    94    48   19.0      3   1.60   1984    477      0   1446   2460   2465      0    0.0  0.000      4      0  0.915  0.944  0.000  0.000  0.000  0.000  0.000   2.90   0.00   0.00      0      4     80.7   1.06   0.00   0.75    3.76    3.84    3.91    1.80    1.33    1.05    0.01    0.00      0      0      0       0      91 19.77
 2020 200    95    49   19.0      3   1.54   1991    497      0   1440   2488   2495      0    0.0  0.000      7      0  0.876  0.918  0.000  0.000  0.000  0.000  0.000   2.87   0.00   0.00      0      7     77.2   1.06   0.00   0.76    3.78    3.82    3.89    1.79    1.33    1.05    0.01    0.00      0      0      0       0      91 20.26
 2020 201    96    50   20.0      3   1.60   2051    663      0   1447   2714   2740      0    0.0  0.000     26      0  0.000  0.000  0.000  0.000  0.000  0.000  0.000   2.63   0.00   0.01      0     26     78.2   1.06   0.00   0.77    4.00    3.80    3.87    1.78    1.36    1.08    0.01    0.00      0      0      0       0      91 16.25
 2020 202    97    51   20.0      3   1.69   2127    863      0   1457   2990   3059      0    0.0  0.000     69      0  0.000  0.000  0.000  0.000  0.000  0.000  0.000   2.41   0.00   0.02      0     69     79.4   1.06   0.00   0.78    3.98    3.78    3.85    1.78    1.50    1.21    0.01    0.00      0      0      0       0      99 16.50
 2020 203    98    52   20.0      3   1.62   2132    873      0   1462   3006   3082      0    0.0  0.000     76      0  0.874  0.917  0.000  0.000  0.000  0.000  0.000   2.41   0.00   0.02      0     76     76.0   1.06   0.00   0.78    3.96    3.76    3.83    1.77    1.59    1.30    0.02    0.00      0      0      0       0     106 14.70
 2020 204    99    53   20.0      3   1.55   2138    885      0   1462   3023   3107      0    0.0  0.000     84      0  0.884  0.923  0.000  0.000  0.000  0.000  0.000   2.41   0.00   0.03      0     84     72.7   1.06   0.00   0.78    3.94    3.74    3.81    1.76    1.64    1.35    0.02    0.00      0      0      0       0     113 17.85
 2020 205   100    54   20.0      3   1.49   2145    898      0   1460   3043   3138      0    0.0  0.000     95      0  0.869  0.913  0.000  0.000  0.000  0.000  0.000   2.40   0.00   0.03      0     95     69.6   1.06   0.00   0.79    3.92    3.72    3.79    1.75    1.68    1.38    0.02    0.00      0      0      0       0     120 18.75
 2020 206   101    55   20.0      3   1.44   2152    908      0   1458   3060   3171      0    0.0  0.000    110      0  0.869  0.913  0.000  0.000  0.000  0.000  0.000   2.40   0.00   0.03      0    110     66.7   1.06   0.00   0.80    3.90    3.70    3.77    1.74    1.71    1.41    0.02    0.00      0      0      0       0     128 19.68
 2020 207   102    56   20.0      3   1.38   2160    916      0   1456   3076   3205      0    0.0  0.000    129      0  0.862  0.909  0.000  0.000  0.000  0.000  0.000   2.40   0.00   0.04      0    129     64.0   1.06   0.00   0.80    3.88    3.69    3.75    1.73    1.74    1.44    0.03    0.00      0      0      0       0     135 20.01
 2020 208   103    57   20.0      3   1.34   2169    927      0   1451   3096   3246      0    0.0  0.000    150      0  0.815  0.877  0.000  0.000  0.000  0.000  0.000   2.40   0.00   0.05      0    150     61.6   1.06   0.00   0.81    3.88    3.69    3.74    1.72    1.74    1.43    0.02    0.00      0      0      0       0     142 19.34
 2020 209   104    58   20.0      3   1.37   2200    993      0   1451   3192   3381      0    0.0  0.000    189      0  0.000  0.000  0.000  0.000  0.000  0.000  0.000   2.33   0.00   0.06      0    189     62.3   1.06   0.00   0.82    3.92    3.73    3.75    1.72    1.73    1.43    0.02    0.00      0      0      0       0     142 15.20
 2020 210   105    59   20.0      4   1.37   2173   1039      0   1450   3212   3488      0    0.0  0.000    276      0  0.000  0.000  0.000  0.000  0.000  0.000  0.000   2.31   0.00   0.08      0    276     63.0   1.06   0.00   0.82    3.95    3.77    3.76    1.71    1.73    1.42    0.02    0.00      0      0      0       0     142 14.60
 2020 211   106    60   20.0      4   1.37   2144   1114      0   1454   3258   3716      0    0.0  0.000    457      0  0.000  0.000  0.000  0.000  0.000  0.000  0.000   2.29   0.00   0.12      0    457     63.9   1.06   0.00   0.83    4.00    3.84    3.79    1.70    1.72    1.42    0.02    0.00      0      0      0       0     150 17.25
 2020 212   107    61   20.0      4   1.37   2114   1173      0   1456   3287   3914      0    0.0  0.000    627      0  0.000  0.000  0.000  0.000  0.000  0.000  0.000   2.27   0.00   0.16      0    627     64.8   1.06   0.00   0.84    4.00    3.90    3.81    1.69    1.72    1.42    0.02    0.00      0      0      0       0     150 12.95
 2020 213   108    62   20.0      4   1.37   2082   1240      0   1462   3322   4170      0    0.0  0.000    848      0  0.000  0.000  0.000  0.000  0.000  0.000  0.000   2.26   0.00   0.20      0    848     65.8   1.06   0.00   0.85    4.00    3.98    3.85    1.68    1.71    1.41    0.02    0.00      0      0      0       0     157 13.45
 2020 214   109    63   20.0      4   1.37   2048   1299      0   1467   3347   4424      0    0.0  0.000   1077      0  0.000  0.000  0.000  0.000  0.000  0.000  0.000   2.24   0.00   0.24      0   1077     66.9   1.06   0.00   0.85    4.00    4.00    3.88    1.67    1.71    1.41    0.02    0.00      0      0      0       0     157 14.20
 2020 215   110    64   20.0      4   1.37   2013   1344      0   1470   3356   4628      0    0.0  0.000   1272      0  0.000  0.000  0.000  0.000  0.000  0.000  0.000   2.23   0.00   0.27      0   1272     68.0   1.06   0.00   0.86    4.00    4.00    3.91    1.66    1.71    1.41    0.02    0.00      0      0      0       0     157 13.55
 2020 216   111    65   20.0      4   1.37   1976   1384      0   1473   3359   4821      0    0.0  0.000   1462      0  0.000  0.000  0.000  0.000  0.000  0.000  0.000   2.23   0.00   0.30      0   1462     69.3   1.06   0.00   0.87    4.00    4.00    3.93    1.65    1.70    1.41    0.02    0.00      0      0      0       0     157 12.20
 2020 217   112    66   20.0      4   1.37   1937   1422      0   1476   3359   5024      0    0.0  0.000   1665      0  0.000  0.000  0.000  0.000  0.000  0.000  0.000   2.23   0.00   0.33      0   1665     70.7   1.06   0.00   0.87    4.00    4.00    3.95    1.64    1.70    1.40    0.02    0.00      0      0      0       0     157 13.85
 2020 218   113    67   20.0      4   1.37   1896   1464      0   1480   3360   5255      0    0.0  0.000   1895      0  0.000  0.000  0.000  0.000  0.000  0.000  0.000   2.23   0.00   0.36      0   1895     72.2   1.06   0.00   0.88    4.00    4.00    3.97    1.63    1.70    1.40    0.02    0.00      0      0      0       0     157 13.50
 2020 219   114    68   20.0      4   1.37   1854   1491      0   1481   3345   5403      0    0.0  0.000   2058      0  0.000  0.000  0.000  0.000  0.000  0.000  0.000   2.24   0.00   0.38      0   2058     73.9   1.06   0.00   0.89    4.00    4.00    3.98    1.62    1.69    1.40    0.02    0.00      0      0      0       0     157 15.55
 2020 220   115    69   20.0      4   1.37   1809   1528      0   1486   3338   5634      0    0.0  0.000   2297      0  0.000  0.000  0.000  0.000  0.000  0.000  0.000   2.25   0.00   0.41      0   2297     75.7   1.06   0.00   0.90    4.00    4.00    4.00    1.62    1.69    1.39    0.02    0.00      0      0      0       0     157 17.90
 2020 221   116    70   20.0      5   1.37   1809   1528    223   1497   3338   5858   2539    8.8  0.038   2520      8  0.000  0.000  0.000  0.000  0.000  0.000  0.000   2.13   8.87   0.43      0   2520     75.7   1.06   0.00   0.91    4.00    4.00    4.00    1.61    1.68    1.40    0.03    0.00      0      0      0       0     157 17.03
 2020 222   117    71   20.0      5   1.37   1809   1528    445   1507   3338   6080   2539   17.5  0.073   2742      8  0.000  0.000  0.000  0.000  0.000  0.000  0.000   2.02  16.25   0.45      0   2742     75.7   1.06   0.00   0.92    4.00    4.00    4.00    1.60    1.68    1.40    0.03    0.00      0      0      0       0     157 18.91
 2020 223   118    72   20.0      5   1.37   1809   1528    669   1509   3338   6303   2539   26.3  0.106   2966      8  0.000  0.147  0.000  0.000  0.000  0.000  0.000   1.94  22.56   0.47      0   2966     75.7   1.06   0.00   0.93    4.00    4.00    4.00    1.59    1.68    1.40    0.03    0.00      0      0      0       0     164 16.95
 2020 224   119    73   20.0      5   1.34   1809   1519    836   1502   3328   6461   2539   32.9  0.129   3133      8  0.457  0.638  0.000  0.000  0.000  0.000  0.000   1.94  26.69   0.48      0   3133     74.0   1.06   0.00   0.93    4.00    4.00    4.00    1.59    1.68    1.40    0.03    0.00      0      0      0       0     172 15.05
 2020 225   120    74   20.0      5   1.30   1809   1479    997   1494   3288   6581   2539   39.3  0.151   3294      8  0.513  0.676  0.000  0.000  0.000  0.000  0.000   1.91  30.26   0.50      0   3294     72.1   1.06   0.00   0.93    4.00    4.00    4.00    1.59    1.68    1.40    0.03    0.00      0      0      0       0     179 16.40
 2020 226   121    75   20.0      5   1.27   1809   1440   1151   1487   3249   6697   2539   45.3  0.172   3448      8  0.565  0.710  0.000  0.000  0.000  0.000  0.000   1.88  33.38   0.51      0   3448     70.0   1.06   0.00   0.93    4.00    4.00    4.00    1.59    1.68    1.40    0.03    0.00      0      0      0       0     187 18.45
 2020 227   122    76   20.0      5   1.23   1809   1381   1305   1479   3190   6792   2539   51.4  0.192   3602      8  0.563  0.709  0.000  0.000  0.000  0.000  0.000   1.84  36.23   0.53      0   3602     68.1   1.06   0.00   0.93    4.00    4.00    4.00    1.59    1.68    1.40    0.03    0.00      0      0      0       0     194 17.25
 2020 228   123    77   20.0      5   1.19   1809   1324   1455   1472   3134   6886   2539   57.3  0.211   3752      8  0.595  0.730  0.000  0.000  0.000  0.000  0.000   1.82  38.79   0.54      0   3752     66.0   1.06   0.00   0.93    4.00    4.00    4.00    1.59    1.68    1.40    0.03    0.00      0      0      0       0     202 17.15
 2020 229   124    78   20.0      5   1.16   1809   1264   1598   1464   3073   6968   2539   62.9  0.229   3895      8  0.656  0.771  0.000  0.000  0.000  0.000  0.000   1.80  41.03   0.56      0   3895     63.9   1.06   0.00   0.93    4.00    4.00    4.00    1.59    1.68    1.40    0.03    0.00      0      0      0       0     209 17.15
 2020 230   125    79   20.0      5   1.12   1809   1211   1739   1457   3021   7056   2539   68.5  0.246   4035      8  0.677  0.785  0.000  0.000  0.000  0.000  0.000   1.78  43.08   0.57      0   4035     61.7   1.06   0.00   0.93    4.00    4.00    4.00    1.59    1.68    1.40    0.03    0.00      0      0      0       0     216 15.25
 2020 231   126    80   20.0      5   1.12   1809   1225   1962   1457   3034   7293   2539   77.3  0.269   4259      8  0.000  0.000  0.000  0.000  0.000  0.000  0.000   1.70  46.07   0.58      0   4259     61.7   1.06   0.00   0.94    4.00    4.00    3.98    1.58    1.67    1.40    0.03    0.00      0      0      0       0     224 15.90
 2020 232   127    81   20.0      5   1.12   1809   1199   2185   1449   3009   7491   2539   86.1  0.292   4482      8  0.000  0.000  0.000  0.000  0.000  0.000  0.000   1.68  48.76   0.60      0   4482     61.7   1.06   0.00   0.94    4.00    4.00    3.98    1.58    1.67    1.40    0.03    0.00      0      0      0       0     231 16.55
 2020 233   128    82   20.0      5   1.12   1809   1209   2409   1447   3018   7723   2539   94.9  0.312   4706      8  0.000  0.000  0.000  0.000  0.000  0.000  0.000   1.65  51.19   0.61      0   4706     61.7   1.06   0.00   0.94    4.00    4.00    3.97    1.57    1.67    1.39    0.03    0.00      0      0      0       0     238 15.35
 2020 234   129    83   20.0      5   1.12   1809   1198   2632   1439   3007   7937   2539  103.7  0.332   4929      8  0.000  0.234  0.000  0.000  0.000  0.000  0.000   1.63  53.40   0.62      0   4929     61.7   1.06   0.00   0.94    4.00    4.00    3.97    1.57    1.67    1.39    0.03    0.00      0      0      0       0     245 16.35
 2020 235   130    84   20.0      5   1.09   1809   1143   2788   1432   2953   8038   2539  109.8  0.347   5085      8  0.550  0.701  0.000  0.000  0.000  0.000  0.000   1.63  54.83   0.63      0   5085     60.0   1.06   0.00   0.94    4.00    4.00    3.97    1.57    1.67    1.39    0.03    0.00      0      0      0       0     253 16.65
 2020 236   131    85   20.0      5   1.05   1809   1076   2931   1425   2885   8114   2539  115.4  0.361   5228      8  0.654  0.770  0.000  0.000  0.000  0.000  0.000   1.61  56.07   0.64      0   5228     58.1   1.06   0.00   0.94    4.00    4.00    3.97    1.57    1.67    1.39    0.03    0.00      0      0      0       0     260 17.92
 2020 237   132    86   20.0      5   1.01   1809   1006   3067   1418   2815   8179   2539  120.8  0.375   5364      8  0.714  0.810  0.000  0.000  0.000  0.000  0.000   1.59  57.18   0.66      0   5364     56.0   1.06   0.00   0.94    4.00    4.00    3.97    1.57    1.67    1.39    0.03    0.00      0      0      0       0     267 17.64
 2020 238   133    87   20.0      5   1.01   1809    998   3290   1411   2807   8394   2539  129.6  0.392   5587      8  0.000  0.000  0.000  0.000  0.000  0.000  0.000   1.52  58.89   0.67      0   5587     56.0   1.06   0.00   0.94    4.00    4.00    3.97    1.57    1.67    1.39    0.03    0.00      0      0      0       0     274 18.25
 2020 239   134    88   20.0      5   1.01   1809    996   3514   1404   2805   8616   2539  138.4  0.408   5811      8  0.000  0.000  0.000  0.000  0.000  0.000  0.000   1.50  60.47   0.67      0   5811     56.0   1.06   0.00   0.94    4.00    4.00    3.97    1.57    1.67    1.39    0.03    0.00      0      0      0       0     281 16.08
 2020 240   135    89   20.0      5   1.01   1809    992   3737   1397   2801   8835   2539  147.2  0.423   6034      8  0.000  0.000  0.000  0.000  0.000  0.000  0.000   1.47  61.94   0.68      0   6034     56.0   1.06   0.00   0.94    4.00    4.00    3.97    1.57    1.67    1.39    0.03    0.00      0      0      0       0     288 17.87
 2020 241   136    90   20.0      5   0.99   1809    951   3914   1390   2760   8971   2539  154.2  0.436   6211      8  0.377  0.585  0.000  0.000  0.000  0.000  0.000   1.47  63.02   0.69      0   6211     54.9   1.06   0.00   0.94    4.00    4.00    3.97    1.57    1.67    1.39    0.03    0.00      0      0      0       0     295 18.16
 2020 242   137    91   20.0      5   0.99   1809    848   4138   1383   2658   9092   2539  163.0  0.455   6435      8  0.000  0.000  0.000  0.000  0.000  0.000  0.000   1.43  64.31   0.71      0   6435     54.9   1.06   0.00   0.94    4.00    4.00    3.97    1.57    1.67    1.39    0.03    0.00      0      0      0       0     302 12.90
 2020 243   138    92   20.0      5   0.99   1809    844   4332   1376   2653   9282   2539  170.6  0.467   6629      8  0.000  0.000  0.000  0.000  0.000  0.000  0.000   1.40  65.35   0.71      0   6629     54.9   1.06   0.00   0.94    4.00    4.00    3.97    1.57    1.67    1.39    0.03    0.00      0      0      0       0     309 16.65
 2020 244   139    93   20.0      5   0.99   1809    848   4555   1369   2657   9509   2539  179.4  0.479   6852      8  0.000  0.000  0.000  0.000  0.000  0.000  0.000   1.39  66.48   0.72      0   6852     54.9   1.06   0.00   0.94    4.00    4.00    3.97    1.57    1.67    1.39    0.03    0.00      0      0      0       0     316 11.30
 2020 245   140    94   20.0      5   0.99   1809    844   4691   1362   2653   9641   2539  184.7  0.487   6988      8  0.000  0.000  0.000  0.000  0.000  0.000  0.000   1.34  67.13   0.72      0   6988     54.9   1.06   0.00   0.94    4.00    4.00    3.97    1.57    1.67    1.39    0.03    0.00      0      0      0       0     323 12.50
 2020 246   141    95   20.0      5   0.99   1809    852   4914   1355   2661   9872   2539  193.5  0.498   7211      8  0.000  0.000  0.000  0.000  0.000  0.000  0.000   1.36  68.15   0.73      0   7211     54.9   1.06   0.00   0.94    4.00    4.00    3.97    1.57    1.67    1.39    0.03    0.00      0      0      0       0     329 14.45
 2020 247   142    96   20.0      5   0.99   1809    861   5138   1349   2670  10105   2539  202.3  0.508   7435      8  0.000  0.000  0.000  0.000  0.000  0.000  0.000   1.34  69.11   0.74      0   7435     54.9   1.06   0.00   0.94    4.00    4.00    3.97    1.57    1.67    1.39    0.03    0.00      0      0      0       0     336 11.75
 2020 248   143    97   20.0      5   0.99   1809    864   5361   1342   2673  10331   2539  211.1  0.519   7658      8  0.000  0.000  0.000  0.000  0.000  0.000  0.000   1.32  70.01   0.74      0   7658     54.9   1.06   0.00   0.94    4.00    4.00    3.97    1.57    1.67    1.39    0.03    0.00      0      0      0       0     343 11.90
 2020 249   144    98   20.0      5   0.99   1809    857   5585   1335   2666  10548   2539  219.9  0.529   7882      8  0.000  0.000  0.000  0.000  0.000  0.000  0.000   1.30  70.86   0.75      0   7882     54.9   1.06   0.00   0.94    4.00    4.00    3.97    1.57    1.67    1.39    0.03    0.00      0      0      0       0     350 16.75
 2020 250   145    99   20.0      5   0.99   1809    854   5786   1328   2664  10746   2539  227.9  0.538   8083      8  0.000  0.000  0.000  0.000  0.000  0.000  0.000   1.27  71.58   0.75      0   8083     54.9   1.06   0.00   0.94    4.00    4.00    3.97    1.57    1.67    1.39    0.03    0.00      0      0      0       0     356 19.50
 2020 251   146   100   20.0      5   0.99   1809    844   5974   1322   2653  10924   2539  235.3  0.547   8271      8  0.000  0.000  0.000  0.000  0.000  0.000  0.000   1.25  72.23   0.76      0   8271     54.9   1.06   0.00   0.94    4.00    4.00    3.97    1.57    1.67    1.39    0.03    0.00      0      0      0       0     363 16.00
 2020 252   147   101   20.0      5   0.89   1809    844   5994   1315   2653  10944   2539  236.1  0.548   8291      8  0.000  0.000  0.000  0.000  0.000  0.000  0.000   1.24  72.30   0.76      0   8291     49.3   1.06   0.00   0.94    4.00    4.00    3.97    1.57    1.67    1.39    0.03    0.00      0      0      0       0     363  2.85
 2020 253   148   102   20.0      5   0.73   1809    844   5994   1309   2653  10944   2539  236.1  0.548   8291      8  0.000  0.000  0.000  0.000  0.000  0.000  0.000   1.24  72.30   0.76      0   8291     40.2   1.06   0.00   0.94    4.00    4.00    3.97    1.57    1.67    1.39    0.03    0.00      0      0      0       0     363  0.00
 2020 254   149   103   20.0      5   0.71   1809    844   6026   1302   2653  10976   2539  237.3  0.549   8323      8  0.000  0.000  0.000  0.000  0.000  0.000  0.000   1.22  72.40   0.76      0   8323     39.5   1.06   0.00   0.94    4.00    4.00    3.97    1.57    1.67    1.39    0.03    0.00      0      0      0       0     363  1.73
 2020 255   150   104   20.0      5   0.71   1809    844   6179   1296   2653  11128   2539  243.3  0.555   8476      8  0.000  0.000  0.000  0.000  0.000  0.000  0.000   1.22  72.90   0.76      0   8476     39.5   1.06   0.00   0.94    4.00    4.00    3.97    1.57    1.67    1.39    0.03    0.00      0      0      0       0     370  7.45
 2020 256   151   105   20.0      5   0.71   1809    844   6342   1289   2653  11291   2539  249.8  0.562   8639      8  0.000  0.000  0.000  0.000  0.000  0.000  0.000   1.21  73.41   0.77      0   8639     39.5   1.06   0.00   0.94    4.00    4.00    3.97    1.57    1.67    1.39    0.03    0.00      0      0      0       0     376 10.70
 2020 257   152   106   20.0      5   0.71   1809    844   6505   1283   2653  11455   2539  256.2  0.568   8802      8  0.000  0.000  0.000  0.000  0.000  0.000  0.000   1.20  73.90   0.77      0   8802     39.5   1.06   0.00   0.94    4.00    4.00    3.97    1.57    1.67    1.39    0.03    0.00      0      0      0       0     382  9.73
 2020 258   153   107   20.0      5   0.71   1809    844   6645   1276   2653  11595   2539  261.7  0.573   8942      8  0.000  0.000  0.000  0.000  0.000  0.000  0.000   1.18  74.31   0.77      0   8942     39.5   1.06   0.00   0.94    4.00    4.00    3.97    1.57    1.67    1.39    0.03    0.00      0      0      0       0     389  9.60
 2020 259   154   108   20.0      5   0.71   1809    844   6791   1270   2653  11741   2539  267.5  0.578   9088      8  0.000  0.000  0.000  0.000  0.000  0.000  0.000   1.17  74.73   0.77      0   9088     39.5   1.06   0.00   0.94    4.00    4.00    3.97    1.57    1.67    1.39    0.03    0.00      0      0      0       0     395 10.40
 2020 260   155   109   20.0      5   0.71   1809    844   6932   1263   2653  11882   2539  273.0  0.583   9229      8  0.000  0.000  0.000  0.000  0.000  0.000  0.000   1.15  75.11   0.78      0   9229     39.5   1.06   0.00   0.94    4.00    4.00    3.97    1.57    1.67    1.39    0.03    0.00      0      0      0       0     402  9.60
 2020 261   156   110   20.0      5   0.71   1809    844   7070   1257   2653  12019   2539  278.4  0.588   9366      8  0.000  0.000  0.000  0.000  0.000  0.000  0.000   1.14  75.48   0.78      0   9366     39.5   1.06   0.00   0.94    4.00    4.00    3.97    1.57    1.67    1.39    0.03    0.00      0      0      0       0     408  9.50
 2020 262   157   111   20.0      5   0.71   1809    844   7197   1251   2653  12147   2539  283.4  0.593   9494      8  0.000  0.000  0.000  0.000  0.000  0.000  0.000   1.13  75.81   0.78      0   9494     39.5   1.06   0.00   0.94    4.00    4.00    3.97    1.57    1.67    1.39    0.03    0.00      0      0      0       0     414 10.35
 2020 263   158   112   20.0      5   0.71   1809    844   7327   1245   2653  12277   2539  288.6  0.597   9624      8  0.000  0.000  0.000  0.000  0.000  0.000  0.000   1.11  76.14   0.78      0   9624     39.5   1.06   0.00   0.94    4.00    4.00    3.97    1.57    1.67    1.39    0.03    0.00      0      0      0       0     420 10.90
 2020 264   159   113   20.0      5   0.71   1809    844   7465   1238   2653  12415   2539  294.0  0.601   9762      8  0.000  0.000  0.000  0.000  0.000  0.000  0.000   1.10  76.47   0.79      0   9762     39.5   1.06   0.00   0.94    4.00    4.00    3.97    1.57    1.67    1.39    0.03    0.00      0      0      0       0     427 14.45
 2020 265   160   114   20.0      5   0.71   1809    844   7603   1232   2653  12553   2539  299.5  0.606   9900      8  0.000  0.000  0.000  0.000  0.000  0.000  0.000   1.09  76.80   0.79      0   9900     39.5   1.06   0.00   0.94    4.00    4.00    3.97    1.57    1.67    1.39    0.03    0.00      0      0      0       0     433 11.95
 2020 266   161   115   20.0      5   0.71   1809    844   7745   1226   2653  12695   2539  305.0  0.610  10042      8  0.000  0.000  0.000  0.000  0.000  0.000  0.000   1.08  77.13   0.79      0  10042     39.5   1.06   0.00   0.94    4.00    4.00    3.97    1.57    1.67    1.39    0.03    0.00      0      0      0       0     439 11.25
 2020 267   162   116   20.0      5   0.71   1809    844   7877   1220   2653  12827   2539  310.2  0.614  10174      8  0.000  0.000  0.000  0.000  0.000  0.000  0.000   1.06  77.42   0.79      0  10174     39.5   1.06   0.00   0.94    4.00    4.00    3.97    1.57    1.67    1.39    0.03    0.00      0      0      0       0     445 13.10
 2020 268   163   117   20.0      5   0.71   1809    844   8017   1214   2653  12967   2539  315.8  0.618  10314      8  0.000  0.000  0.000  0.000  0.000  0.000  0.000   1.05  77.73   0.80      0  10314     39.5   1.06   0.00   0.94    4.00    4.00    3.97    1.57    1.67    1.39    0.03    0.00      0      0      0       0     451 14.56
 2020 269   164   118   20.0      5   0.71   1809    844   8159   1208   2653  13109   2539  321.3  0.622  10456      8  0.000  0.000  0.000  0.000  0.000  0.000  0.000   1.03  78.03   0.80      0  10456     39.5   1.06   0.00   0.94    4.00    4.00    3.97    1.57    1.67    1.39    0.03    0.00      0      0      0       0     457 15.25
 2020 270   165   119   20.0      5   0.71   1809    844   8284   1202   2653  13234   2539  326.3  0.626  10581      8  0.000  0.000  0.000  0.000  0.000  0.000  0.000   1.01  78.29   0.80      0  10581     39.5   1.06   0.00   0.94    4.00    4.00    3.97    1.57    1.67    1.39    0.03    0.00      0      0      0       0     463 14.70
 2020 271   166   120   20.0      5   0.71   1809    844   8284   1202   2653  13234   2539  326.3  0.626  10581      8  0.000  0.000  0.000  0.000  0.000  0.000  0.000   1.01  78.29   0.80      0  10581     39.5   1.06   0.00   0.94    4.00    4.00    3.97    1.57    1.67    1.39    0.03    0.00      0      0      0       0     463  9.10
 2020 272   167   121   20.0      5   0.71   1809    844   8284   1202   2653  13234   2539  326.3  0.626  10581      8  0.000  0.000  0.000  0.000  0.000  0.000  0.000   1.01  78.29   0.80      0  10581     39.5   1.06   0.00   0.94    4.00    4.00    3.97    1.57    1.67    1.39    0.03    0.00      0      0      0       0     463  4.82
 2020 273   168   122   20.0      5   0.71   1809    844   8284   1202   2653  13234   2539  326.3  0.626  10581      8  0.000  0.000  0.000  0.000  0.000  0.000  0.000   1.01  78.29   0.80      0  10581     39.5   1.06   0.00   0.94    4.00    4.00    3.97    1.57    1.67    1.39    0.03    0.00      0      0      0       0     463  8.98
 2020 274   169   123   20.0      5   0.71   1809    844   8284   1202   2653  13234   2539  326.3  0.626  10581      8  0.000  0.000  0.000  0.000  0.000  0.000  0.000   1.01  78.29   0.80      0  10581     39.5   1.06   0.00   0.94    4.00    4.00    3.97    1.57    1.67    1.39    0.03    0.00      0      0      0       0     463  8.37
 2020 275   170   124   20.0      5   0.71   1809    844   8284   1202   2653  13234   2539  326.3  0.626  10581      8  0.000  0.000  0.000  0.000  0.000  0.000  0.000   1.01  78.29   0.80      0  10581     39.5   1.06   0.00   0.94    4.00    4.00    3.97    1.57    1.67    1.39    0.03    0.00      0      0      0       0     463  4.85
 2020 276   171   125   20.0      5   0.71   1809    844   8284   1202   2653  13234   2539  326.3  0.626  10581      8  0.000  0.000  0.000  0.000  0.000  0.000  0.000   1.01  78.29   0.80      0  10581     39.5   1.06   0.00   0.94    4.00    4.00    3.97    1.57    1.67    1.39    0.03    0.00      0      0      0       0     463  7.79
 2020 277   172   126   20.0      5   0.71   1809    844   8284   1202   2653  13234   2539  326.3  0.626  10581      8  0.000  0.000  0.000  0.000  0.000  0.000  0.000   1.01  78.29   0.80      0  10581     39.5   1.06   0.00   0.94    4.00    4.00    3.97    1.57    1.67    1.39    0.03    0.00      0      0      0       0     463  0.00

*DSSAT Cropping System Model Ver. 4.7.5.035 -develop  JUN 14, 2021 14:17:00

*RUN   2        : 20 IRRIG, PETPEN KCB..... MZCER047 KSRT2001    2
 MODEL          : MZCER047 - Maize
 EXPERIMENT     : KSRT2001 SB ARM 2020 KS, IRRIGATED
 DATA PATH      :
 TREATMENT  2   : 20 IRRIG, PETPEN KCB..... MZCER047
  
!                                                                                                                                                                                                                                      Root Dens. (cm/cm3) by soil depth (cm):
!                                                                                                                                                                                                                                      0-5    5-15   15-29   29-43   43-53   53-64  64-132 132-201
@YEAR DOY   DAS   DAP   L#SD   GSTD   LAID   LWAD   SWAD   GWAD   RWAD   VWAD   CWAD   G#AD   GWGD   HIAD   PWAD   P#AD   WSPD   WSGD   NSTD   EWSD  PST1A  PST2A   KSTD   LN%D   SH%D   HIPD   PWDD   PWTD     SLAD   CHTD   CWID   RDPD    RL1D    RL2D    RL3D    RL4D    RL5D    RL6D    RL7D    RL8D   CDAD   LDAD   SDAD   SNW0C   SNW1C  DTTD
 2020 151    46     0    0.0      0   0.00      0      0      0      0      0      0      0    0.0  0.000      0      0  0.000  0.000  0.000  0.000  0.000  0.000  0.000   0.00   0.00   0.00      0      0      0.0   0.00   0.00   0.05    0.00    0.00    0.00    0.00    0.00    0.00    0.00    0.00      0      0      0       0       0 20.06
 2020 152    47     1    0.0      0   0.00      0      0      0      0      0      0      0    0.0  0.000      0      0  0.000  0.000  0.000  0.000  0.000  0.000  0.000   0.00   0.00   0.00      0      0      0.0   0.00   0.00   0.08    0.00    0.00    0.00    0.00    0.00    0.00    0.00    0.00      0      0      0       0       0 20.09
 2020 153    48     2    0.0      0   0.00      0      0      0      0      0      0      0    0.0  0.000      0      0  0.000  0.000  0.000  0.000  0.000  0.000  0.000   0.00   0.00   0.00      0      0      0.0   0.00   0.00   0.11    0.00    0.00    0.00    0.00    0.00    0.00    0.00    0.00      0      0      0       0       0 20.05
 2020 154    49     3    0.0      0   0.00      0      0      0      0      0      0      0    0.0  0.000      0      0  0.000  0.000  0.000  0.000  0.000  0.000  0.000   0.00   0.00   0.00      0      0      0.0   0.00   0.00   0.14    0.00    0.00    0.00    0.00    0.00    0.00    0.00    0.00      0      0      0       0       0 21.04
 2020 155    50     4    0.0      0   0.00      0      0      0      0      0      0      0    0.0  0.000      0      0  0.000  0.000  0.000  0.000  0.000  0.000  0.000   0.00   0.00   0.00      0      0      0.0   0.00   0.00   0.17    0.00    0.00    0.00    0.00    0.00    0.00    0.00    0.00      0      0      0       0       0 20.80
 2020 156    51     5    2.0      1   0.00     15     15      0     15     30     30      0    0.0  0.000      0      0  0.000  0.000  0.012  0.000  0.000  0.000  0.000   4.40   0.00   0.00      0      0     30.6   0.00   0.00   0.19    0.30    0.15    0.02    0.00    0.00    0.00    0.00    0.00      0      0      0       0       0 20.17
 2020 157    52     6    2.0      1   0.01     15     15      0     15     30     30      0    0.0  0.000      0      0  0.612  0.742  0.010  0.000  0.000  0.000  0.000   4.40   0.00   0.00      0      0     38.0   0.00   0.00   0.20    0.31    0.15    0.02    0.00    0.00    0.00    0.00    0.00      0      0      0       0       0 21.65
 2020 158    53     7    3.0      1   0.01     15     15      0     16     30     30      0    0.0  0.000      0      0  0.641  0.761  0.001  0.000  0.000  0.000  0.000   4.40   0.00   0.00      0      0     45.8   0.00   0.00   0.22    0.30    0.15    0.02    0.00    0.00    0.00    0.00    0.00      0      0      0       0       0 21.85
 2020 159    54     8    3.0      1   0.01     15     15      0     16     30     30      0    0.0  0.000      0      0  0.698  0.799  0.000  0.000  0.000  0.000  0.000   4.40   0.00   0.00      0      0     52.9   0.00   0.00   0.23    0.30    0.16    0.02    0.00    0.00    0.00    0.00    0.00      0      0      0       0       0 22.57
 2020 160    55     9    4.0      1   0.01     15     15      0     16     30     30      0    0.0  0.000      0      0  0.707  0.805  0.000  0.000  0.000  0.000  0.000   4.40   0.00   0.00      0      0     81.1   0.01   0.00   0.24    0.31    0.16    0.02    0.00    0.00    0.00    0.00    0.00      0      0      0       0       0 22.32
 2020 161    56    10    4.0      1   0.02     15     15      0     17     30     30      0    0.0  0.000      0      0  0.371  0.581  0.000  0.000  0.000  0.000  0.000   4.40   0.00   0.00      0      0    108.9   0.01   0.00   0.25    0.30    0.16    0.02    0.00    0.00    0.00    0.00    0.00      0      0      0       0       0  9.40
 2020 162    57    11    4.0      1   0.02     15     15      0     18     30     30      0    0.0  0.000      0      0  0.496  0.665  0.000  0.000  0.000  0.000  0.000   4.40   0.00   0.00      0      0    139.6   0.01   0.00   0.26    0.32    0.17    0.03    0.00    0.00    0.00    0.00    0.00      0      0      0       0       0 12.21
 2020 163    58    12    5.0      1   0.03     15     15      0     19     30     30      0    0.0  0.000      0      0  0.643  0.763  0.000  0.000  0.000  0.000  0.000   4.40   0.00   0.00      0      0    176.5   0.01   0.00   0.27    0.33    0.19    0.03    0.00    0.00    0.00    0.00    0.00      0      0      0       0       0 18.70
 2020 164    59    13    5.0      1   0.03     15     15      0     21     30     30      0    0.0  0.000      0      0  0.646  0.764  0.000  0.000  0.000  0.000  0.000   4.40   0.00   0.00      0      0    221.8   0.02   0.00   0.28    0.34    0.20    0.04    0.00    0.00    0.00    0.00    0.00      0      0      0       0       0 20.33
 2020 165    60    14    6.0      1   0.04     15     15      0     23     30     30      0    0.0  0.000      0      0  0.718  0.813  0.000  0.000  0.000  0.000  0.000   4.40   0.00   0.00      0      0    258.2   0.02   0.00   0.29    0.35    0.21    0.05    0.00    0.00    0.00    0.00    0.00      0      0      0       0       0 20.05
 2020 166    61    15    6.0      1   0.05     15     15      0     24     30     30      0    0.0  0.000      0      0  0.734  0.823  0.000  0.000  0.000  0.000  0.000   4.41   0.00   0.00      0      0    300.7   0.02   0.00   0.31    0.36    0.22    0.05    0.00    0.00    0.00    0.00    0.00      0      0      0       0       0 21.18
 2020 167    62    16    7.0      1   0.05     18     15      0     24     34     34      0    0.0  0.000      0      0  0.740  0.827  0.000  0.000  0.000  0.000  0.000   3.99   0.00   0.00      0      0    285.1   0.02   0.00   0.33    0.36    0.23    0.05    0.00    0.00    0.00    0.00    0.00      0      0      0       0       0 21.41
 2020 168    63    17    7.0      2   0.06     21     15      0     25     36     36      0    0.0  0.000      0      0  0.709  0.807  0.000  0.000  0.000  0.000  0.000   3.67   0.00   0.00      0      0    294.1   0.03   0.00   0.35    0.37    0.23    0.06    0.00    0.00    0.00    0.00    0.00      0      0      0       0       0 20.62
 2020 169    64    18    7.0      2   0.07     25     15      0     26     41     41      0    0.0  0.000      0      0  0.721  0.815  0.000  0.000  0.000  0.000  0.000   3.50   0.00   0.00      0      0    280.5   0.03   0.00   0.38    0.37    0.24    0.06    0.00    0.00    0.00    0.00    0.00      0      0      0       0       0 22.19
 2020 170    65    19    8.0      2   0.09     32     15      0     27     47     47      0    0.0  0.000      0      0  0.624  0.750  0.000  0.000  0.000  0.000  0.000   3.30   0.00   0.00      0      0    268.2   0.04   0.00   0.40    0.38    0.24    0.06    0.00    0.00    0.00    0.00    0.00      0      0      0       0       0 18.44
 2020 171    66    20    8.0      2   0.11     42     15      0     29     57     57      0    0.0  0.000      0      0  0.085  0.390  0.000  0.000  0.000  0.000  0.000   3.11   0.00   0.00      0      0    262.6   0.05   0.00   0.42    0.39    0.25    0.07    0.01    0.00    0.00    0.00    0.00      0      0      0       0       0 11.84
 2020 172    67    21    8.0      2   0.14     55     15      0     32     70     70      0    0.0  0.000      0      0  0.425  0.617  0.000  0.000  0.000  0.000  0.000   4.32   0.00   0.00      0      0    251.0   0.06   0.00   0.45    0.41    0.28    0.08    0.02    0.00    0.00    0.00    0.00      0      0      0       0       1 17.70
 2020 173    68    22    9.0      2   0.16     66     15      0     34     81     81      0    0.0  0.000      0      0  0.528  0.686  0.000  0.000  0.000  0.000  0.000   4.34   0.00   0.00      0      0    240.5   0.07   0.00   0.47    0.42    0.29    0.09    0.03    0.00    0.00    0.00    0.00      0      0      0       0       1 18.43
 2020 174    69    23    9.0      2   0.18     79     15      0     40     94     94      0    0.0  0.000      0      0  0.491  0.661  0.000  0.000  0.000  0.000  0.000   4.23   0.00   0.00      0      0    231.0   0.08   0.00   0.49    0.45    0.32    0.11    0.05    0.00    0.00    0.00    0.00      0      0      0       0       1 16.44
 2020 175    70    24   10.0      3   0.23    103     15      0     51    119    119      0    0.0  0.000      0      0  0.151  0.434  0.000  0.000  0.000  0.000  0.000   3.73   0.00   0.00      0      0    221.1   0.10   0.00   0.50    0.52    0.39    0.15    0.09    0.02    0.00    0.00    0.00      0      0      0       0       1 16.02
 2020 176    71    25   10.0      3   0.28    133     16      0     63    148    148      0    0.0  0.000      0      0  0.310  0.541  0.000  0.000  0.000  0.000  0.000   3.86   0.00   0.00      0      0    212.1   0.13   0.00   0.53    0.58    0.46    0.18    0.12    0.03    0.00    0.00    0.00      0      0      0       0       1 21.10
 2020 177    72    26   10.0      3   0.34    166     16      0     75    182    182      0    0.0  0.000      0      0  0.336  0.558  0.000  0.000  0.000  0.000  0.000   3.81   0.00   0.00      0      0    203.6   0.15   0.00   0.55    0.65    0.53    0.22    0.16    0.05    0.00    0.00    0.00      0      0      0       0       2 21.41
 2020 178    73    27   11.0      3   0.44    222     19      0    100    241    241      0    0.0  0.000      0      0  0.004  0.336  0.000  0.000  0.000  0.000  0.000   3.43   0.00   0.00      0      0    196.9   0.20   0.00   0.58    0.80    0.68    0.31    0.23    0.08    0.01    0.00    0.00      0      0      0       0       2 21.48
 2020 179    74    28   11.0      3   0.53    279     24      0    132    303    303      0    0.0  0.000      0      0  0.000  0.311  0.000  0.000  0.000  0.000  0.000   3.37   0.00   0.00      0      0    191.0   0.24   0.00   0.60    0.92    0.88    0.42    0.34    0.13    0.03    0.00    0.00      0      0      0       0       3 18.77
 2020 180    75    29   12.0      3   0.67    368     33      0    163    401    401      0    0.0  0.000      0      0  0.000  0.193  0.000  0.000  0.000  0.000  0.000   3.33   0.00   0.00      0      0    183.6   0.30   0.00   0.62    0.96    1.08    0.53    0.45    0.17    0.05    0.00    0.00      0      0      0       0       3 19.08
 2020 181    76    30   12.0      3   0.83    467     49      0    187    516    516      0    0.0  0.000      0      0  0.000  0.211  0.000  0.000  0.000  0.000  0.000   3.44   0.00   0.00      0      0    176.9   0.37   0.00   0.65    1.10    1.22    0.61    0.52    0.20    0.08    0.00    0.00      0      0      0       0       4 20.88
 2020 182    77    31   12.0      3   0.99    582     71      0    236    654    654      0    0.0  0.000      0      0  0.000  0.000  0.000  0.000  0.000  0.000  0.000   3.23   0.00   0.00      0      0    170.6   0.45   0.00   0.66    1.38    1.50    0.77    0.67    0.26    0.12    0.00    0.00      0      0      0       0       5 18.17
 2020 183    78    32   13.0      3   1.15    698     99      0    290    797    797      0    0.0  0.000      0      0  0.000  0.000  0.000  0.000  0.000  0.000  0.000   3.18   0.00   0.00      0      0    165.5   0.52   0.00   0.67    1.69    1.81    0.94    0.83    0.33    0.17    0.00    0.00      0      0      0       0       6 17.40
 2020 184    79    33   13.0      3   1.33    829    138      0    326    967    967      0    0.0  0.000      0      0  0.000  0.000  0.000  0.000  0.000  0.000  0.000   3.14   0.00   0.00      0      0    160.6   0.60   0.00   0.68    1.90    2.02    1.06    0.93    0.37    0.20    0.00    0.00      0      0      0       0       8 19.11
 2020 185    80    34   14.0      3   1.49    950    180      0    392   1129   1129      0    0.0  0.000      0      0  0.000  0.000  0.000  0.000  0.000  0.000  0.000   3.10   0.00   0.00      0      0    156.8   0.67   0.00   0.69    2.28    2.39    1.27    1.13    0.45    0.26    0.00    0.00      0      0      0       0       9 16.94
 2020 186    81    35   14.0      3   1.64   1072    230      0    468   1302   1302      0    0.0  0.000      0      0  0.000  0.000  0.000  0.000  0.000  0.000  0.000   3.06   0.00   0.00      0      0    153.4   0.74   0.00   0.70    2.54    2.87    1.53    1.37    0.55    0.33    0.00    0.00      0      0      0       0      11 16.75
 2020 187    82    36   14.0      3   1.80   1194    287      0    477   1481   1481      0    0.0  0.000      0      0  0.000  0.000  0.000  0.000  0.000  0.000  0.000   3.02   0.00   0.00      0      0    150.5   0.81   0.00   0.70    2.54    2.91    1.57    1.40    0.57    0.34    0.00    0.00      0      0      0       0      13 16.30
 2020 188    83    37   15.0      3   1.95   1317    353      0    568   1670   1670      0    0.0  0.000      0      0  0.000  0.000  0.000  0.000  0.000  0.000  0.000   2.98   0.00   0.00      0      0    147.8   0.87   0.00   0.71    2.53    3.41    1.95    1.75    0.71    0.44    0.00    0.00      0      0      0       0      16 16.15
 2020 189    84    38   15.0      3   2.12   1460    440      0    654   1901   1901      0    0.0  0.000      0      0  0.000  0.000  0.000  0.000  0.000  0.000  0.000   2.94   0.00   0.00      0      0    145.0   0.95   0.00   0.72    2.52    3.81    2.33    2.10    0.86    0.55    0.00    0.00      0      0      0       0      19 18.37
 2020 190    85    39   15.0      3   2.26   1582    526      0    745   2108   2108      0    0.0  0.000      0      0  0.000  0.244  0.000  0.000  0.000  0.000  0.000   2.92   0.00   0.00      0      0    142.9   1.02   0.00   0.73    2.51    4.00    2.76    2.49    1.02    0.67    0.00    0.00      0      0      0       0      22 20.24
 2020 191    86    40   16.0      3   2.43   1730    644      0    814   2374   2374      0    0.0  0.000      0      0  0.000  0.044  0.000  0.000  0.000  0.000  0.000   2.85   0.00   0.00      0      0    140.6   1.09   0.00   0.74    2.49    4.00    3.08    2.81    1.15    0.76    0.00    0.00      0      0      0       0      26 19.10
 2020 192    87    41   16.0      3   2.58   1860    761      0    823   2621   2621      0    0.0  0.000      0      0  0.000  0.000  0.000  0.000  0.000  0.000  0.000   2.81   0.00   0.00      0      0    138.7   1.16   0.00   0.75    2.48    4.00    3.12    2.86    1.17    0.78    0.00    0.00      0      0      0       0      30 18.85
 2020 193    88    42   17.0      3   2.88   2131    906      0    842   3037   3037      0    0.0  0.000      0      0  0.000  0.166  0.000  0.000  0.000  0.000  0.000   2.77   0.00   0.00      0      0    135.2   1.29   0.00   0.76    2.47    4.00    3.20    2.96    1.22    0.81    0.00    0.00      0      0      0       0      34 18.27
 2020 194    89    43   17.0      3   3.00   2263   1061      0    875   3323   3323      0    0.0  0.000      0      0  0.133  0.422  0.000  0.000  0.000  0.000  0.000   2.77   0.00   0.00      0      0    132.8   1.35   0.00   0.77    2.45    4.00    3.35    3.12    1.30    0.87    0.00    0.00      0      0      0       0      38 18.19
 2020 195    90    44   17.0      3   3.04   2338   1177      0    937   3515   3515      0    0.0  0.000      0      0  0.311  0.541  0.000  0.000  0.000  0.000  0.000   2.76   0.00   0.00      0      0    129.9   1.36   0.00   0.78    2.44    4.00    3.61    3.42    1.48    0.99    0.01    0.00      0      0      0       0      42 17.20
 2020 196    91    45   18.0      3   3.02   2388   1267      0    951   3655   3658      0    0.0  0.000      3      0  0.469  0.647  0.000  0.000  0.000  0.000  0.000   2.76   0.00   0.00      0      3    126.4   1.36   0.00   0.79    2.43    4.00    3.67    3.49    1.53    1.02    0.01    0.00      0      0      0       0      47 17.95
 2020 197    92    46   18.0      3   2.97   2420   1331      0    976   3751   3757      0    0.0  0.000      7      0  0.558  0.706  0.000  0.000  0.000  0.000  0.000   2.72   0.00   0.00      0      7    122.6   1.36   0.00   0.80    2.41    4.00    3.77    3.61    1.62    1.09    0.01    0.00      0      0      0       0      52 15.55
 2020 198    93    47   18.0      3   2.88   2441   1376      0    999   3817   3828      0    0.0  0.000     11      0  0.709  0.807  0.000  0.000  0.000  0.000  0.000   2.71   0.00   0.00      0     11    118.1   1.36   0.00   0.81    2.40    3.98    3.87    3.72    1.73    1.15    0.01    0.00      0      0      0       0      57 17.35
 2020 199    94    48   19.0      3   2.78   2456   1412      0   1009   3868   3883      0    0.0  0.000     15      0  0.794  0.863  0.000  0.000  0.000  0.000  0.000   2.70   0.00   0.00      0     15    113.4   1.36   0.00   0.81    2.53    3.96    3.89    3.75    1.76    1.17    0.01    0.00      0      0      0       0      62 19.77
 2020 200    95    49   19.0      3   2.70   2473   1454      0   1014   3927   3948      0    0.0  0.000     21      0  0.756  0.838  0.000  0.000  0.000  0.000  0.000   2.66   0.00   0.01      0     21    109.1   1.36   0.00   0.82    2.68    3.95    3.89    3.76    1.78    1.19    0.01    0.00      0      0      0       0      62 20.26
 2020 201    96    50   20.0      3   2.75   2527   1580      0   1082   4107   4160      0    0.0  0.000     53      0  0.010  0.340  0.000  0.000  0.000  0.000  0.000   2.54   0.00   0.01      0     53    108.9   1.36   0.00   0.83    3.88    3.97    4.00    3.91    1.93    1.32    0.02    0.00      0      0      0       0      62 16.25
 2020 202    97    51   20.0      3   2.82   2587   1708      0   1186   4295   4404      0    0.0  0.000    109      0  0.000  0.242  0.000  0.000  0.000  0.000  0.000   2.48   0.00   0.02      0    109    108.9   1.36   0.00   0.84    3.86    3.97    4.00    4.00    2.38    1.72    0.04    0.00      0      0      0       0      67 16.50
 2020 203    98    52   20.0      3   2.73   2600   1729      0   1223   4329   4461      0    0.0  0.000    131      0  0.697  0.798  0.000  0.000  0.000  0.000  0.000   2.51   0.00   0.03      0    131    105.1   1.36   0.00   0.84    3.84    3.95    4.00    4.00    2.56    1.89    0.05    0.00      0      0      0       0      73 14.70
 2020 204    99    53   20.0      3   2.64   2614   1750      0   1248   4364   4520      0    0.0  0.000    156      0  0.738  0.826  0.000  0.000  0.000  0.000  0.000   2.50   0.00   0.03      0    156    101.2   1.36   0.00   0.85    3.82    3.93    4.00    4.00    2.69    2.01    0.06    0.00      0      0      0       0      79 17.85
 2020 205   100    54   20.0      3   2.56   2629   1771      0   1266   4400   4587      0    0.0  0.000    187      0  0.722  0.815  0.000  0.000  0.000  0.000  0.000   2.48   0.00   0.04      0    187     97.5   1.36   0.00   0.86    3.80    3.91    4.00    4.00    2.79    2.12    0.06    0.00      0      0      0       0      79 18.75
 2020 206   101    55   20.0      3   2.49   2645   1782      0   1285   4427   4655      0    0.0  0.000    228      0  0.729  0.820  0.000  0.000  0.000  0.000  0.000   2.46   0.00   0.05      0    228     94.0   1.36   0.00   0.87    3.78    3.89    4.00    4.00    2.90    2.26    0.07    0.00      0      0      0       0      79 19.68
 2020 207   102    56   20.0      3   2.42   2662   1785      0   1305   4448   4728      0    0.0  0.000    281      0  0.712  0.809  0.000  0.000  0.000  0.000  0.000   2.45   0.00   0.06      0    281     90.8   1.36   0.00   0.87    3.76    3.87    3.99    4.00    3.01    2.43    0.09    0.00      0      0      0       0      79 20.01
 2020 208   103    57   20.0      3   2.37   2686   1795      0   1315   4480   4827      0    0.0  0.000    347      0  0.602  0.735  0.000  0.000  0.000  0.000  0.000   2.43   0.00   0.07      0    347     88.1   1.36   0.00   0.88    3.88    4.00    4.00    3.98    3.00    2.43    0.09    0.00      0      0      0       0      79 19.34
 2020 209   104    58   20.0      3   2.41   2730   1864      0   1319   4594   5013      0    0.0  0.000    419      0  0.000  0.000  0.000  0.000  0.000  0.000  0.000   2.37   0.00   0.08      0    419     88.4   1.36   0.00   0.89    3.94    4.00    4.00    3.96    2.99    2.43    0.09    0.00      0      0      0       0      79 15.20
 2020 210   105    59   20.0      4   2.41   2698   1927      0   1320   4625   5164      0    0.0  0.000    539      0  0.000  0.000  0.000  0.000  0.000  0.000  0.000   2.36   0.00   0.10      0    539     89.4   1.36   0.00   0.90    3.98    4.00    4.00    3.94    2.98    2.42    0.09    0.00      0      0      0       0      79 14.60
 2020 211   106    60   20.0      4   2.41   2664   2029      0   1329   4693   5478      0    0.0  0.000    785      0  0.000  0.000  0.000  0.000  0.000  0.000  0.000   2.32   0.00   0.14      0    785     90.6   1.36   0.00   0.91    4.00    4.00    4.00    3.92    2.97    2.42    0.09    0.00      0      0      0       0      79 17.25
 2020 212   107    61   20.0      4   2.41   2628   2110      0   1335   4738   5754      0    0.0  0.000   1016      0  0.000  0.000  0.000  0.000  0.000  0.000  0.000   2.30   0.00   0.18      0   1016     91.8   1.36   0.00   0.92    4.00    4.00    4.00    3.90    2.96    2.42    0.09    0.00      0      0      0       0      79 12.95
 2020 213   108    62   20.0      4   2.41   2590   2200      0   1346   4790   6107      0    0.0  0.000   1317      0  0.000  0.000  0.000  0.000  0.000  0.000  0.000   2.28   0.00   0.22      0   1317     93.2   1.36   0.00   0.92    4.00    4.00    4.00    3.88    2.95    2.42    0.09    0.00      0      0      0       0      79 13.45
 2020 214   109    63   20.0      4   2.41   2550   2281      0   1356   4830   6459      0    0.0  0.000   1629      0  0.000  0.000  0.000  0.000  0.000  0.000  0.000   2.26   0.00   0.25      0   1629     94.7   1.36   0.00   0.93    4.00    4.00    4.00    3.86    2.94    2.42    0.09    0.00      0      0      0       0      79 14.20
 2020 215   110    64   20.0      4   2.41   2508   2341      0   1363   4849   6742      0    0.0  0.000   1893      0  0.000  0.000  0.000  0.000  0.000  0.000  0.000   2.25   0.00   0.28      0   1893     96.3   1.36   0.00   0.94    4.00    4.00    4.00    3.84    2.93    2.41    0.09    0.00      0      0      0       0      79 13.55
 2020 216   111    65   20.0      4   2.41   2464   2396      0   1370   4859   7012      0    0.0  0.000   2152      0  0.000  0.000  0.000  0.000  0.000  0.000  0.000   2.24   0.00   0.31      0   2152     98.0   1.36   0.00   0.94    4.00    4.00    4.00    3.82    2.92    2.41    0.09    0.00      0      0      0       0      79 12.20
 2020 217   112    66   20.0      4   2.41   2417   2449      0   1378   4866   7294      0    0.0  0.000   2428      0  0.000  0.000  0.000  0.000  0.000  0.000  0.000   2.24   0.00   0.33      0   2428     99.8   1.36   0.00   0.95    4.00    4.00    4.00    3.80    2.91    2.41    0.09    0.00      0      0      0       0      79 13.85
 2020 218   113    67   20.0      4   2.41   2369   2505      0   1387   4874   7616      0    0.0  0.000   2742      0  0.000  0.000  0.000  0.000  0.000  0.000  0.000   2.24   0.00   0.36      0   2742    101.9   1.36   0.00   0.96    4.00    4.00    4.00    3.78    2.90    2.41    0.09    0.00      0      0      0       0      79 13.50
 2020 219   114    68   20.0      4   2.41   2319   2542      0   1391   4861   7824      0    0.0  0.000   2964      0  0.000  0.000  0.000  0.000  0.000  0.000  0.000   2.24   0.00   0.38      0   2964    104.1   1.36   0.00   0.97    4.00    4.00    4.00    3.76    2.89    2.40    0.09    0.00      0      0      0       0      79 15.55
 2020 220   115    69   20.0      4   2.41   2266   2593      0   1401   4859   8147      0    0.0  0.000   3288      0  0.000  0.000  0.000  0.000  0.000  0.000  0.000   2.24   0.00   0.40      0   3288    106.5   1.36   0.00   0.98    4.00    4.00    4.00    3.74    2.88    2.40    0.09    0.00      0      0      0       0      79 17.90
 2020 221   116    70   20.0      5   2.41   2266   2593    292   1422   4859   8439   3318    8.8  0.035   3580      8  0.000  0.000  0.000  0.000  0.000  0.000  0.000   2.14   8.16   0.42      0   3580    106.5   1.36   0.00   0.99    4.00    4.00    4.00    3.73    2.87    2.41    0.09    0.00      0      0      0       0      79 17.03
 2020 222   117    71   20.0      5   2.41   2266   2593    582   1442   4859   8729   3318   17.5  0.067   3870      8  0.000  0.000  0.000  0.000  0.000  0.000  0.000   2.04  15.04   0.44      0   3870    106.5   1.36   0.00   1.00    4.00    4.00    4.00    3.71    2.87    2.42    0.09    0.00      0      0      0       0      79 18.91
 2020 223   118    72   20.0      5   2.39   2266   2593    842   1441   4859   8989   3318   25.4  0.094   4131      8  0.198  0.466  0.000  0.000  0.000  0.000  0.000   1.94  20.39   0.46      0   4131    105.5   1.36   0.00   1.00    3.98    4.00    4.00    3.69    2.86    2.41    0.09    0.00      0      0      0       0      79 16.95
 2020 224   119    73   20.0      5   2.34   2266   2593   1068   1435   4859   9215   3318   32.2  0.116   4356      8  0.413  0.609  0.000  0.000  0.000  0.000  0.000   1.92  24.52   0.47      0   4356    103.3   1.36   0.00   1.01    3.96    3.99    3.99    3.67    2.84    2.40    0.09    0.00      0      0      0       0      86 15.05
 2020 225   120    74   20.0      5   2.30   2266   2572   1301   1428   4838   9427   3318   39.2  0.138   4589      8  0.369  0.580  0.000  0.000  0.000  0.000  0.000   1.88  28.35   0.49      0   4589    101.4   1.36   0.00   1.01    3.96    3.99    3.99    3.67    2.84    2.40    0.09    0.00      0      0      0       0      94 16.40
 2020 226   121    75   20.0      5   2.25   2266   2564   1530   1421   4830   9648   3318   46.1  0.159   4818      8  0.393  0.596  0.000  0.000  0.000  0.000  0.000   1.85  31.75   0.50      0   4818     99.4   1.36   0.00   1.01    3.96    3.99    3.99    3.67    2.84    2.40    0.09    0.00      0      0      0       0     101 18.45
 2020 227   122    76   20.0      5   2.21   2266   2522   1763   1414   4788   9839   3318   53.1  0.179   5051      8  0.365  0.577  0.000  0.000  0.000  0.000  0.000   1.81  34.91   0.51      0   5051     97.6   1.36   0.00   1.01    3.96    3.99    3.99    3.67    2.84    2.40    0.09    0.00      0      0      0       0     108 17.25
 2020 228   123    77   20.0      5   2.17   2266   2490   1992   1407   4756  10036   3318   60.0  0.198   5280      8  0.397  0.598  0.000  0.000  0.000  0.000  0.000   1.79  37.72   0.53      0   5280     95.6   1.36   0.00   1.01    3.96    3.99    3.99    3.67    2.84    2.40    0.09    0.00      0      0      0       0     115 17.15
 2020 229   124    78   20.0      5   2.11   2266   2449   2204   1400   4715  10207   3318   66.4  0.216   5492      8  0.495  0.664  0.000  0.000  0.000  0.000  0.000   1.77  40.13   0.54      0   5492     93.3   1.36   0.00   1.01    3.96    3.99    3.99    3.67    2.84    2.40    0.09    0.00      0      0      0       0     122 17.15
 2020 230   125    79   20.0      5   2.06   2266   2429   2414   1393   4695  10397   3318   72.7  0.232   5702      8  0.511  0.675  0.000  0.000  0.000  0.000  0.000   1.75  42.33   0.55      0   5702     90.9   1.36   0.00   1.01    3.96    3.99    3.99    3.67    2.84    2.40    0.09    0.00      0      0      0       0     129 15.25
 2020 231   126    80   20.0      5   2.06   2266   2464   2706   1404   4730  10724   3318   81.5  0.252   5994      8  0.000  0.000  0.000  0.000  0.000  0.000  0.000   1.69  45.14   0.56      0   5994     90.9   1.36   0.00   1.02    4.00    4.00    3.98    3.65    2.83    2.39    0.09    0.00      0      0      0       0     136 15.90
 2020 232   127    81   20.0      5   2.06   2266   2459   2998   1396   4725  11011   3318   90.3  0.272   6286      8  0.000  0.000  0.000  0.000  0.000  0.000  0.000   1.66  47.69   0.57      0   6286     90.9   1.36   0.00   1.02    4.00    4.00    3.98    3.65    2.83    2.39    0.09    0.00      0      0      0       0     143 16.55
 2020 233   128    82   20.0      5   2.06   2266   2488   3290   1404   4754  11332   3318   99.1  0.290   6578      8  0.000  0.000  0.000  0.000  0.000  0.000  0.000   1.63  50.01   0.58      0   6578     90.9   1.36   0.00   1.03    4.00    4.00    3.97    3.63    2.81    2.38    0.10    0.00      0      0      0       0     150 15.35
 2020 234   129    83   20.0      5   2.03   2266   2465   3539   1397   4731  11558   3318  106.6  0.306   6827      8  0.269  0.513  0.000  0.000  0.000  0.000  0.000   1.62  51.84   0.59      0   6827     89.7   1.36   0.00   1.03    4.00    4.00    3.97    3.63    2.81    2.38    0.10    0.00      0      0      0       0     157 16.35
 2020 235   130    84   20.0      5   1.99   2266   2425   3761   1390   4691  11740   3318  113.3  0.320   7049      8  0.435  0.624  0.000  0.000  0.000  0.000  0.000   1.60  53.35   0.60      0   7049     87.7   1.36   0.00   1.03    4.00    4.00    3.97    3.63    2.81    2.38    0.10    0.00      0      0      0       0     164 16.65
 2020 236   131    85   20.0      5   1.93   2266   2358   3958   1383   4624  11870   3318  119.3  0.333   7246      8  0.594  0.730  0.000  0.000  0.000  0.000  0.000   1.58  54.62   0.61      0   7246     85.1   1.36   0.00   1.03    4.00    4.00    3.97    3.63    2.81    2.38    0.10    0.00      0      0      0       0     171 17.92
 2020 237   132    86   20.0      5   1.86   2266   2273   4132   1376   4538  11959   3318  124.5  0.346   7420      8  0.733  0.823  0.000  0.000  0.000  0.000  0.000   1.57  55.69   0.62      0   7420     82.0   1.36   0.00   1.03    4.00    4.00    3.97    3.63    2.81    2.38    0.10    0.00      0      0      0       0     178 17.64
 2020 238   133    87   20.0      5   1.86   2266   2285   4424   1376   4551  12263   3318  133.3  0.361   7712      8  0.000  0.000  0.000  0.000  0.000  0.000  0.000   1.50  57.36   0.63      0   7712     82.0   1.36   0.00   1.04    4.00    4.00    3.95    3.61    2.80    2.37    0.10    0.00      0      0      0       0     185 18.25
 2020 239   134    88   20.0      5   1.86   2266   2302   4716   1377   4568  12572   3318  142.1  0.375   8004      8  0.000  0.033  0.000  0.000  0.000  0.000  0.000   1.48  58.92   0.64      0   8004     82.0   1.36   0.00   1.05    4.00    4.00    3.93    3.59    2.79    2.36    0.10    0.00      0      0      0       0     192 16.08
 2020 240   135    89   20.0      5   1.84   2266   2298   4973   1370   4564  12825   3318  149.9  0.388   8261      8  0.218  0.479  0.000  0.000  0.000  0.000  0.000   1.46  60.20   0.64      0   8261     81.1   1.36   0.00   1.05    4.00    4.00    3.93    3.59    2.79    2.36    0.10    0.00      0      0      0       0     198 17.87
 2020 241   136    90   20.0      5   1.77   2266   2203   5142   1363   4469  12899   3318  154.9  0.399   8430      8  0.766  0.845  0.000  0.000  0.000  0.000  0.000   1.47  60.99   0.65      0   8430     78.0   1.36   0.00   1.05    4.00    4.00    3.93    3.59    2.79    2.36    0.10    0.00      0      0      0       0     205 18.16
 2020 242   137    91   20.0      5   1.77   2266   2074   5434   1357   4340  13062   3318  163.7  0.416   8722      8  0.000  0.000  0.000  0.000  0.000  0.000  0.000   1.41  62.30   0.67      0   8722     78.0   1.36   0.00   1.05    4.00    4.00    3.93    3.59    2.79    2.36    0.10    0.00      0      0      0       0     212 12.90
 2020 243   138    92   20.0      5   1.77   2266   2064   5726   1350   4329  13344   3318  172.5  0.429   9014      8  0.000  0.000  0.000  0.000  0.000  0.000  0.000   1.39  63.52   0.68      0   9014     78.0   1.36   0.00   1.05    4.00    4.00    3.93    3.59    2.79    2.36    0.10    0.00      0      0      0       0     219 16.65
 2020 244   139    93   20.0      5   1.77   2266   2076   6018   1349   4342  13648   3318  181.3  0.441   9306      8  0.000  0.000  0.000  0.000  0.000  0.000  0.000   1.38  64.67   0.68      0   9306     78.0   1.36   0.00   1.05    4.00    4.00    3.95    3.58    2.77    2.35    0.10    0.00      0      0      0       0     226 11.30
 2020 245   140    94   20.0      5   1.77   2266   1981   6310   1343   4247  13845   3318  190.1  0.456   9598      8  0.000  0.000  0.000  0.000  0.000  0.000  0.000   1.36  65.74   0.69      0   9598     78.0   1.36   0.00   1.05    4.00    4.00    3.95    3.58    2.77    2.35    0.10    0.00      0      0      0       0     232 12.50
 2020 246   141    95   20.0      5   1.77   2266   1996   6602   1344   4262  14152   3318  198.9  0.466   9890      8  0.000  0.000  0.000  0.000  0.000  0.000  0.000   1.34  66.75   0.70      0   9890     78.0   1.36   0.00   1.06    4.00    4.00    3.96    3.56    2.76    2.34    0.10    0.00      0      0      0       0     239 14.45
 2020 247   142    96   20.0      5   1.77   2266   2012   6894   1345   4278  14461   3318  207.7  0.477  10182      8  0.000  0.000  0.000  0.000  0.000  0.000  0.000   1.33  67.71   0.70      0  10182     78.0   1.36   0.00   1.07    4.00    4.00    3.98    3.54    2.74    2.32    0.10    0.00      0      0      0       0     246 11.75
 2020 248   143    97   20.0      5   1.77   2266   2024   7186   1344   4290  14764   3318  216.5  0.487  10474      8  0.000  0.000  0.000  0.000  0.000  0.000  0.000   1.31  68.61   0.71      0  10474     78.0   1.36   0.00   1.07    4.00    4.00    3.99    3.52    2.73    2.31    0.10    0.00      0      0      0       0     253 11.90
 2020 249   144    98   20.0      5   1.77   2266   2029   7478   1340   4295  15061   3318  225.3  0.497  10766      8  0.000  0.000  0.000  0.000  0.000  0.000  0.000   1.29  69.46   0.71      0  10766     78.0   1.36   0.00   1.08    3.99    4.00    3.98    3.50    2.71    2.30    0.10    0.00      0      0      0       0     259 16.75
 2020 250   145    99   20.0      5   1.77   2266   2035   7741   1336   4301  15330   3318  233.3  0.505  11029      8  0.000  0.000  0.000  0.000  0.000  0.000  0.000   1.26  70.19   0.72      0  11029     78.0   1.36   0.00   1.09    3.99    4.00    3.98    3.48    2.70    2.29    0.10    0.00      0      0      0       0     266 19.50
[...]
 2020 220   115    69   20.0      4   1.02   1459   1205      0   1242   2665   4496      0    0.0  0.000   1831      0  0.000  0.000  0.000  0.000  0.000  0.000  0.000   2.30   0.00   0.41      0   1831     70.1   0.89   0.00   0.80    4.00    4.00    3.87    0.19    1.20    0.61    0.00    0.00      0      0      0       0     117 17.90
 2020 221   116    70   20.0      5   1.02   1459   1205    189   1250   2665   4685   2150    8.8  0.040   2020      8  0.000  0.000  0.000  0.000  0.000  0.000  0.000   2.18   9.36   0.43      0   2020     70.1   0.89   0.00   0.81    4.00    4.00    3.90    0.19    1.20    0.61    0.00    0.00      0      0      0       0     117 17.03
 2020 222   117    71   20.0      5   1.02   1459   1205    377   1257   2665   4873   2150   17.5  0.077   2208      8  0.000  0.000  0.000  0.000  0.000  0.000  0.000   2.05  17.08   0.45      0   2208     70.1   0.89   0.00   0.82    4.00    4.00    3.93    0.19    1.20    0.61    0.00    0.00      0      0      0       0     117 18.91
 2020 223   118    72   20.0      5   1.02   1459   1205    551   1253   2665   5047   2150   25.6  0.109   2382      8  0.149  0.433  0.000  0.000  0.000  0.000  0.000   1.95  23.13   0.47      0   2382     69.6   0.89   0.00   0.83    3.98    4.00    3.92    0.19    1.20    0.61    0.00    0.00      0      0      0       0     124 16.95
 2020 224   119    73   20.0      5   0.98   1459   1167    673   1247   2626   5130   2150   31.3  0.131   2504      8  0.649  0.766  0.000  0.000  0.000  0.000  0.000   1.97  26.86   0.49      0   2504     67.3   0.89   0.00   0.83    3.98    4.00    3.92    0.19    1.20    0.61    0.00    0.00      0      0      0       0     130 15.05
 2020 225   120    74   20.0      5   0.95   1459   1110    789   1240   2570   5190   2150   36.7  0.152   2620      8  0.698  0.799  0.000  0.000  0.000  0.000  0.000   1.93  30.12   0.50      0   2620     65.0   0.89   0.00   0.83    3.98    4.00    3.92    0.19    1.20    0.61    0.00    0.00      0      0      0       0     136 16.40
 2020 226   121    75   20.0      5   0.91   1459   1053    901   1234   2513   5245   2150   41.9  0.172   2732      8  0.741  0.828  0.000  0.000  0.000  0.000  0.000   1.91  32.98   0.52      0   2732     62.6   0.89   0.00   0.83    3.98    4.00    3.92    0.19    1.20    0.61    0.00    0.00      0      0      0       0     142 18.45
 2020 227   122    76   20.0      5   0.88   1459    985   1012   1228   2444   5288   2150   47.1  0.191   2843      8  0.752  0.835  0.000  0.000  0.000  0.000  0.000   1.87  35.60   0.54      0   2843     60.2   0.89   0.00   0.83    3.98    4.00    3.92    0.19    1.20    0.61    0.00    0.00      0      0      0       0     142 17.25
 2020 228   123    77   20.0      5   0.84   1459    917   1120   1222   2376   5328   2150   52.1  0.210   2951      8  0.781  0.855  0.000  0.000  0.000  0.000  0.000   1.84  37.95   0.55      0   2951     57.9   0.89   0.00   0.83    3.98    4.00    3.92    0.19    1.20    0.61    0.00    0.00      0      0      0       0     142 17.15
 2020 229   124    78   20.0      5   0.81   1459    846   1224   1216   2306   5361   2150   56.9  0.228   3055      8  0.822  0.882  0.000  0.000  0.000  0.000  0.000   1.81  40.06   0.57      0   3055     55.5   0.89   0.00   0.83    3.98    4.00    3.92    0.19    1.20    0.61    0.00    0.00      0      0      0       0     142 17.15
 2020 230   125    79   20.0      5   0.78   1459    778   1326   1210   2238   5395   2150   61.7  0.246   3157      8  0.838  0.892  0.000  0.000  0.000  0.000  0.000   1.81  42.00   0.59      0   3157     53.2   0.89   0.00   0.83    3.98    4.00    3.92    0.19    1.20    0.61    0.00    0.00      0      0      0       0     148 15.25
 2020 231   126    80   20.0      5   0.78   1459    779   1515   1204   2239   5585   2150   70.5  0.271   3346      8  0.000  0.000  0.000  0.000  0.000  0.000  0.000   1.72  45.28   0.60      0   3346     53.2   0.89   0.00   0.84    3.97    3.98    3.90    0.19    1.19    0.61    0.00    0.00      0      0      0       0     155 15.90
 2020 232   127    81   20.0      5   0.78   1459    741   1704   1198   2201   5736   2150   79.3  0.297   3535      8  0.000  0.000  0.000  0.000  0.000  0.000  0.000   1.69  48.20   0.62      0   3535     53.2   0.89   0.00   0.84    3.97    3.98    3.90    0.19    1.19    0.61    0.00    0.00      0      0      0       0     161 16.55
 2020 233   128    82   20.0      5   0.78   1459    737   1893   1192   2196   5920   2150   88.1  0.320   3725      8  0.000  0.000  0.000  0.000  0.000  0.000  0.000   1.67  50.84   0.63      0   3725     53.2   0.89   0.00   0.84    3.97    3.98    3.90    0.19    1.19    0.61    0.00    0.00      0      0      0       0     167 15.35
 2020 234   129    83   20.0      5   0.78   1459    710   2083   1186   2169   6083   2150   96.9  0.342   3914      8  0.000  0.185  0.000  0.000  0.000  0.000  0.000   1.64  53.21   0.64      0   3914     53.2   0.89   0.00   0.84    3.97    3.98    3.90    0.19    1.19    0.61    0.00    0.00      0      0      0       0     173 16.35
 2020 235   130    84   20.0      5   0.75   1459    653   2200   1180   2112   6143   2150  102.3  0.358   4031      8  0.692  0.795  0.000  0.000  0.000  0.000  0.000   1.65  54.57   0.66      0   4031     51.3   0.89   0.00   0.84    3.97    3.98    3.90    0.19    1.19    0.61    0.00    0.00      0      0      0       0     178 16.65
 2020 236   131    85   20.0      5   0.72   1459    651   2233   1174   2110   6175   2150  103.9  0.362   4065      8  0.797  0.865  0.000  0.000  0.000  0.000  0.000   1.62  54.95   0.66      0   4065     49.3   0.89   0.00   0.84    3.97    3.98    3.90    0.19    1.19    0.61    0.00    0.00      0      0      0       0     178 17.92
 2020 237   132    86   20.0      5   0.69   1459    651   2252   1168   2110   6194   2150  104.8  0.364   4084      8  0.889  0.926  0.000  0.000  0.000  0.000  0.000   1.60  55.16   0.66      0   4084     47.1   0.89   0.00   0.84    3.97    3.98    3.90    0.19    1.19    0.61    0.00    0.00      0      0      0       0     178 17.64
 2020 238   133    87   20.0      5   0.69   1459    651   2413   1162   2110   6354   2150  112.2  0.380   4244      8  0.000  0.000  0.000  0.000  0.000  0.000  0.000   1.52  56.85   0.67      0   4244     47.1   0.89   0.00   0.84    3.97    3.98    3.90    0.19    1.19    0.61    0.00    0.00      0      0      0       0     184 18.25
 2020 239   134    88   20.0      5   0.69   1459    651   2577   1157   2110   6519   2150  119.9  0.395   4408      8  0.000  0.000  0.000  0.000  0.000  0.000  0.000   1.50  58.46   0.68      0   4408     47.1   0.89   0.00   0.84    3.97    3.98    3.90    0.19    1.19    0.61    0.00    0.00      0      0      0       0     190 16.08
 2020 240   135    89   20.0      5   0.69   1459    651   2740   1151   2110   6682   2150  127.5  0.410   4572      8  0.000  0.000  0.000  0.000  0.000  0.000  0.000   1.47  59.94   0.68      0   4572     47.1   0.89   0.00   0.84    3.97    3.98    3.90    0.19    1.19    0.61    0.00    0.00      0      0      0       0     196 17.87
 2020 241   136    90   20.0      5   0.68   1459    651   2868   1145   2110   6810   2150  133.4  0.421   4699      8  0.209  0.473  0.000  0.000  0.000  0.000  0.000   1.44  61.03   0.69      0   4699     46.6   0.89   0.00   0.84    3.97    3.98    3.90    0.19    1.19    0.61    0.00    0.00      0      0      0       0     202 18.16
 2020 242   137    91   20.0      5   0.68   1459    651   2952   1139   2110   6894   2150  137.3  0.428   4783      8  0.000  0.000  0.000  0.000  0.000  0.000  0.000   1.38  61.72   0.69      0   4783     46.6   0.89   0.00   0.84    3.97    3.98    3.90    0.19    1.19    0.61    0.00    0.00      0      0      0       0     207 12.90
 2020 243   138    92   20.0      5   0.68   1459    651   3097   1134   2110   7039   2150  144.0  0.440   4928      8  0.000  0.000  0.000  0.000  0.000  0.000  0.000   1.39  62.84   0.70      0   4928     46.6   0.89   0.00   0.84    3.97    3.98    3.90    0.19    1.19    0.61    0.00    0.00      0      0      0       0     213 16.65
 2020 244   139    93   20.0      5   0.68   1459    651   3260   1128   2110   7202   2150  151.6  0.453   5091      8  0.000  0.000  0.000  0.000  0.000  0.000  0.000   1.39  64.03   0.71      0   5091     46.6   0.89   0.00   0.84    3.97    3.98    3.90    0.19    1.19    0.61    0.00    0.00      0      0      0       0     219 11.30
 2020 245   140    94   20.0      5   0.68   1459    651   3361   1122   2110   7303   2150  156.3  0.460   5193      8  0.000  0.000  0.000  0.000  0.000  0.000  0.000   1.33  64.73   0.71      0   5193     46.6   0.89   0.00   0.84    3.97    3.98    3.90    0.19    1.19    0.61    0.00    0.00      0      0      0       0     224 12.50
 2020 246   141    95   20.0      5   0.68   1459    651   3527   1117   2110   7469   2150  164.1  0.472   5359      8  0.000  0.000  0.000  0.000  0.000  0.000  0.000   1.35  65.83   0.72      0   5359     46.6   0.89   0.00   0.84    3.97    3.98    3.90    0.19    1.19    0.61    0.00    0.00      0      0      0       0     230 14.45
 2020 247   142    96   20.0      5   0.68   1459    651   3694   1111   2110   7636   2150  171.8  0.484   5525      8  0.000  0.000  0.000  0.000  0.000  0.000  0.000   1.34  66.86   0.72      0   5525     46.6   0.89   0.00   0.84    3.97    3.98    3.90    0.19    1.19    0.61    0.00    0.00      0      0      0       0     236 11.75
 2020 248   143    97   20.0      5   0.68   1459    651   3857   1106   2110   7798   2150  179.4  0.495   5688      8  0.000  0.000  0.000  0.000  0.000  0.000  0.000   1.32  67.81   0.73      0   5688     46.6   0.89   0.00   0.84    3.97    3.98    3.90    0.19    1.19    0.61    0.00    0.00      0      0      0       0     241 11.90
 2020 249   144    98   20.0      5   0.68   1459    651   4012   1100   2110   7954   2150  186.6  0.504   5843      8  0.000  0.000  0.000  0.000  0.000  0.000  0.000   1.29  68.66   0.73      0   5843     46.6   0.89   0.00   0.84    3.97    3.98    3.90    0.19    1.19    0.61    0.00    0.00      0      0      0       0     247 16.75
 2020 250   145    99   20.0      5   0.68   1459    651   4153   1095   2110   8095   2150  193.2  0.513   5984      8  0.000  0.000  0.000  0.000  0.000  0.000  0.000   1.26  69.40   0.74      0   5984     46.6   0.89   0.00   0.84    3.97    3.98    3.90    0.19    1.19    0.61    0.00    0.00      0      0      0       0     252 19.50
 2020 251   146   100   20.0      5   0.68   1459    651   4294   1089   2110   8235   2150  199.7  0.521   6125      8  0.000  0.000  0.000  0.000  0.000  0.000  0.000   1.24  70.10   0.74      0   6125     46.6   0.89   0.00   0.84    3.97    3.98    3.90    0.19    1.19    0.61    0.00    0.00      0      0      0       0     258 16.00
 2020 252   147   101   20.0      5   0.61   1459    651   4309   1084   2110   8251   2150  200.4  0.522   6140      8  0.000  0.000  0.000  0.000  0.000  0.000  0.000   1.23  70.18   0.74      0   6140     41.8   0.89   0.00   0.84    3.97    3.98    3.90    0.19    1.19    0.61    0.00    0.00      0      0      0       0     258  2.85
 2020 253   148   102   20.0      5   0.50   1459    651   4309   1078   2110   8251   2150  200.4  0.522   6140      8  0.000  0.000  0.000  0.000  0.000  0.000  0.000   1.23  70.18   0.74      0   6140     34.1   0.89   0.00   0.84    3.97    3.98    3.90    0.19    1.19    0.61    0.00    0.00      0      0      0       0     258  0.00
 2020 254   149   103   20.0      5   0.49   1459    651   4332   1073   2110   8274   2150  201.5  0.524   6163      8  0.000  0.000  0.000  0.000  0.000  0.000  0.000   1.21  70.29   0.74      0   6163     33.5   0.89   0.00   0.84    3.97    3.98    3.90    0.19    1.19    0.61    0.00    0.00      0      0      0       0     258  1.73
 2020 255   150   104   20.0      5   0.49   1459    651   4444   1068   2110   8385   2150  206.7  0.530   6275      8  0.000  0.000  0.000  0.000  0.000  0.000  0.000   1.21  70.82   0.75      0   6275     33.5   0.89   0.00   0.84    3.97    3.98    3.90    0.19    1.19    0.61    0.00    0.00      0      0      0       0     263  7.45
 2020 256   151   105   20.0      5   0.49   1459    651   4563   1062   2110   8504   2150  212.2  0.537   6394      8  0.000  0.000  0.000  0.000  0.000  0.000  0.000   1.20  71.36   0.75      0   6394     33.5   0.89   0.00   0.84    3.97    3.98    3.90    0.19    1.19    0.61    0.00    0.00      0      0      0       0     268 10.70
 2020 257   152   106   20.0      5   0.49   1459    651   4682   1057   2110   8623   2150  217.7  0.543   6513      8  0.000  0.000  0.000  0.000  0.000  0.000  0.000   1.19  71.88   0.76      0   6513     33.5   0.89   0.00   0.84    3.97    3.98    3.90    0.19    1.19    0.61    0.00    0.00      0      0      0       0     274  9.73
 2020 258   153   107   20.0      5   0.49   1459    651   4784   1052   2110   8726   2150  222.5  0.548   6615      8  0.000  0.000  0.000  0.000  0.000  0.000  0.000   1.17  72.32   0.76      0   6615     33.5   0.89   0.00   0.84    3.97    3.98    3.90    0.19    1.19    0.61    0.00    0.00      0      0      0       0     279  9.60
 2020 259   154   108   20.0      5   0.49   1459    651   4891   1046   2110   8832   2150  227.5  0.554   6722      8  0.000  0.000  0.000  0.000  0.000  0.000  0.000   1.16  72.76   0.76      0   6722     33.5   0.89   0.00   0.84    3.97    3.98    3.90    0.19    1.19    0.61    0.00    0.00      0      0      0       0     284 10.40
 2020 260   155   109   20.0      5   0.49   1459    651   4994   1041   2110   8935   2150  232.3  0.559   6825      8  0.000  0.000  0.000  0.000  0.000  0.000  0.000   1.15  73.17   0.76      0   6825     33.5   0.89   0.00   0.84    3.97    3.98    3.90    0.19    1.19    0.61    0.00    0.00      0      0      0       0     289  9.60
 2020 261   156   110   20.0      5   0.49   1459    651   5094   1036   2110   9035   2150  236.9  0.564   6925      8  0.000  0.000  0.000  0.000  0.000  0.000  0.000   1.14  73.56   0.77      0   6925     33.5   0.89   0.00   0.84    3.97    3.98    3.90    0.19    1.19    0.61    0.00    0.00      0      0      0       0     295  9.50
 2020 262   157   111   20.0      5   0.49   1459    651   5187   1031   2110   9128   2150  241.3  0.568   7018      8  0.000  0.000  0.000  0.000  0.000  0.000  0.000   1.12  73.91   0.77      0   7018     33.5   0.89   0.00   0.84    3.97    3.98    3.90    0.19    1.19    0.61    0.00    0.00      0      0      0       0     300 10.35
 2020 263   158   112   20.0      5   0.49   1459    651   5282   1026   2110   9224   2150  245.7  0.573   7113      8  0.000  0.000  0.000  0.000  0.000  0.000  0.000   1.11  74.26   0.77      0   7113     33.5   0.89   0.00   0.84    3.97    3.98    3.90    0.19    1.19    0.61    0.00    0.00      0      0      0       0     305 10.90
 2020 264   159   113   20.0      5   0.49   1459    651   5383   1020   2110   9324   2150  250.4  0.577   7214      8  0.000  0.000  0.000  0.000  0.000  0.000  0.000   1.10  74.62   0.77      0   7214     33.5   0.89   0.00   0.84    3.97    3.98    3.90    0.19    1.19    0.61    0.00    0.00      0      0      0       0     310 14.45
 2020 265   160   114   20.0      5   0.49   1459    651   5483   1015   2110   9425   2150  255.0  0.582   7315      8  0.000  0.000  0.000  0.000  0.000  0.000  0.000   1.08  74.97   0.78      0   7315     33.5   0.89   0.00   0.84    3.97    3.98    3.90    0.19    1.19    0.61    0.00    0.00      0      0      0       0     315 11.95
 2020 266   161   115   20.0      5   0.49   1459    651   5587   1010   2110   9529   2150  259.9  0.586   7418      8  0.000  0.000  0.000  0.000  0.000  0.000  0.000   1.07  75.31   0.78      0   7418     33.5   0.89   0.00   0.84    3.97    3.98    3.90    0.19    1.19    0.61    0.00    0.00      0      0      0       0     320 11.25
 2020 267   162   116   20.0      5   0.49   1459    651   5683   1005   2110   9625   2150  264.3  0.590   7514      8  0.000  0.000  0.000  0.000  0.000  0.000  0.000   1.06  75.63   0.78      0   7514     33.5   0.89   0.00   0.84    3.97    3.98    3.90    0.19    1.19    0.61    0.00    0.00      0      0      0       0     325 13.10
 2020 268   163   117   20.0      5   0.49   1459    651   5786   1000   2110   9727   2150  269.1  0.595   7617      8  0.000  0.000  0.000  0.000  0.000  0.000  0.000   1.04  75.96   0.78      0   7617     33.5   0.89   0.00   0.84    3.97    3.98    3.90    0.19    1.19    0.61    0.00    0.00      0      0      0       0     330 14.56
 2020 269   164   118   20.0      5   0.49   1459    651   5889    995   2110   9831   2150  273.9  0.599   7720      8  0.000  0.000  0.000  0.000  0.000  0.000  0.000   1.03  76.28   0.79      0   7720     33.5   0.89   0.00   0.84    3.97    3.98    3.90    0.19    1.19    0.61    0.00    0.00      0      0      0       0     335 15.25
 2020 270   165   119   20.0      5   0.49   1459    651   5980    990   2110   9922   2150  278.2  0.603   7812      8  0.000  0.000  0.000  0.000  0.000  0.000  0.000   1.01  76.56   0.79      0   7812     33.5   0.89   0.00   0.84    3.97    3.98    3.90    0.19    1.19    0.61    0.00    0.00      0      0      0       0     340 14.70
 2020 271   166   120   20.0      5   0.49   1459    651   5980    990   2110   9922   2150  278.2  0.603   7812      8  0.000  0.000  0.000  0.000  0.000  0.000  0.000   1.01  76.56   0.79      0   7812     33.5   0.89   0.00   0.84    3.97    3.98    3.90    0.19    1.19    0.61    0.00    0.00      0      0      0       0     340  9.10
 2020 272   167   121   20.0      5   0.49   1459    651   5980    990   2110   9922   2150  278.2  0.603   7812      8  0.000  0.000  0.000  0.000  0.000  0.000  0.000   1.01  76.56   0.79      0   7812     33.5   0.89   0.00   0.84    3.97    3.98    3.90    0.19    1.19    0.61    0.00    0.00      0      0      0       0     340  4.82
 2020 273   168   122   20.0      5   0.49   1459    651   5980    990   2110   9922   2150  278.2  0.603   7812      8  0.000  0.000  0.000  0.000  0.000  0.000  0.000   1.01  76.56   0.79      0   7812     33.5   0.89   0.00   0.84    3.97    3.98    3.90    0.19    1.19    0.61    0.00    0.00      0      0      0       0     340  8.98
 2020 274   169   123   20.0      5   0.49   1459    651   5980    990   2110   9922   2150  278.2  0.603   7812      8  0.000  0.000  0.000  0.000  0.000  0.000  0.000   1.01  76.56   0.79      0   7812     33.5   0.89   0.00   0.84    3.97    3.98    3.90    0.19    1.19    0.61    0.00    0.00      0      0      0       0     340  8.37
 2020 275   170   124   20.0      5   0.49   1459    651   5980    990   2110   9922   2150  278.2  0.603   7812      8  0.000  0.000  0.000  0.000  0.000  0.000  0.000   1.01  76.56   0.79      0   7812     33.5   0.89   0.00   0.84    3.97    3.98    3.90    0.19    1.19    0.61    0.00    0.00      0      0      0       0     340  4.85
 2020 276   171   125   20.0      5   0.49   1459    651   5980    990   2110   9922   2150  278.2  0.603   7812      8  0.000  0.000  0.000  0.000  0.000  0.000  0.000   1.01  76.56   0.79      0   7812     33.5   0.89   0.00   0.84    3.97    3.98    3.90    0.19    1.19    0.61    0.00    0.00      0      0      0       0     340  7.79
 2020 277   172   126   20.0      5   0.49   1459    651   5980    990   2110   9922   2150  278.2  0.603   7812      8  0.000  0.000  0.000  0.000  0.000  0.000  0.000   1.01  76.56   0.79      0   7812     33.5   0.89   0.00   0.84    3.97    3.98    3.90    0.19    1.19    0.61    0.00    0.00      0      0      0       0     340  0.00
