*Soil Carbon Balance

*DSSAT Cropping System Model Ver. 4.7.5.035 -develop  JUN 14, 2021 09:08:55

*RUN   1        : 20 IRRIG, PETPEN NO KCB.. MZCER047 KSRT2001    1
 MODEL          : MZCER047 - Maize
 EXPERIMENT     : KSRT2001 SB ARM 2020 KS, IRRIGATED
 DATA PATH      :
 TREATMENT  1   : 20 IRRIG, PETPEN NO KCB.. MZCER047
  

!                                                 Initial               Final
!                                                Year/DOY            Year/DOY
!                                                2020-105            2020-105
! SOIL C BALANCE                                 --------- kg[C]/ha ---------
!  SOIL & SURFACE ORGANIC C
!   Soil Organic C                              182825.00           181515.25
!   Surface Organic C                                0.00                0.00
!   Soil Litter C                                    0.00              202.25
!   Surface Litter C                                 0.00                0.00
!                                                --------            --------
!   Total C in Soil and Surface Layers          182825.00           181717.50
!  ADDITIONS AND REMOVALS:
!   C in Harvest Residues from Previous              0.00
!   C from Organic Applications                      0.00
!   C in returned senesced material                321.95
!   CO2-C emitted                                                     1429.42
!                                                --------            --------
! TOTAL C BALANCE                               183146.95           183146.92
!   Balance                                                            -0.035

*DSSAT Cropping System Model Ver. 4.7.5.035 -develop  JUN 14, 2021 09:08:55

*RUN   2        : 20 IRRIG, PETPEN KCB..... MZCER047 KSRT2001    2
 MODEL          : MZCER047 - Maize
 EXPERIMENT     : KSRT2001 SB ARM 2020 KS, IRRIGATED
 DATA PATH      :
 TREATMENT  2   : 20 IRRIG, PETPEN KCB..... MZCER047
  

!                                                 Initial               Final
!                                                Year/DOY            Year/DOY
!                                                2020-105            2020-105
! SOIL C BALANCE                                 --------- kg[C]/ha ---------
!  SOIL & SURFACE ORGANIC C
!   Soil Organic C                              182825.00           181429.16
!   Surface Organic C                                0.00                0.00
!   Soil Litter C                                    0.00              135.63
!   Surface Litter C                                 0.00                0.00
!                                                --------            --------
!   Total C in Soil and Surface Layers          182825.00           181564.80
!  ADDITIONS AND REMOVALS:
!   C in Harvest Residues from Previous              0.00
!   C from Organic Applications                      0.00
!   C in returned senesced material                251.82
!   CO2-C emitted                                                     1511.99
!                                                --------            --------
! TOTAL C BALANCE                               183076.83           183076.78
!   Balance                                                            -0.040

*DSSAT Cropping System Model Ver. 4.7.5.035 -develop  JUN 14, 2021 09:08:55

*RUN   3        : 20 IRRIG, ASCE SHORT..... MZCER047 KSRT2001    3
 MODEL          : MZCER047 - Maize
 EXPERIMENT     : KSRT2001 SB ARM 2020 KS, IRRIGATED
 DATA PATH      :
 TREATMENT  3   : 20 IRRIG, ASCE SHORT..... MZCER047
  

!                                                 Initial               Final
!                                                Year/DOY            Year/DOY
!                                                2020-105            2020-105
! SOIL C BALANCE                                 --------- kg[C]/ha ---------
!  SOIL & SURFACE ORGANIC C
!   Soil Organic C                              182825.00           181484.47
!   Surface Organic C                                0.00                0.00
!   Soil Litter C                                    0.00              128.48
!   Surface Litter C                                 0.00                0.00
!                                                --------            --------
!   Total C in Soil and Surface Layers          182825.00           181612.95
!  ADDITIONS AND REMOVALS:
!   C in Harvest Residues from Previous              0.00
!   C from Organic Applications                      0.00
!   C in returned senesced material                235.00
!   CO2-C emitted                                                     1447.03
!                                                --------            --------
! TOTAL C BALANCE                               183060.00           183059.98
!   Balance                                                            -0.023
