*Soil Organic Matter daily output file

*DSSAT Cropping System Model Ver. 4.7.5.035 -develop  JUN 14, 2021 09:08:55

*RUN   1        : 20 IRRIG, PETPEN NO KCB.. MZCER047 KSRT2001    1
 MODEL          : MZCER047 - Maize
 EXPERIMENT     : KSRT2001 SB ARM 2020 KS, IRRIGATED
 DATA PATH      :
 TREATMENT  1   : 20 IRRIG, PETPEN NO KCB.. MZCER047
  
@YEAR DOY   DAS    OMAC    SCDD    SOCD    SC0D    SCTD   SOMCT    LCTD    ONAC    SNDD    SOND    SN0D    SNTD   SOMNT    LNTD
 2020 105     0       0   22422  182825       0  182825  182825     0.0    0.00  2242.2 18282.5    0.00 18282.5 18282.5    0.00
 2020 106     1       0   22421  182819       0  182819  182819     0.0    0.00  2242.1 18281.9    0.00 18281.9 18281.9    0.00
 2020 107     2       0   22421  182814       0  182814  182814     0.0    0.00  2242.1 18281.4    0.00 18281.4 18281.4    0.00
 2020 108     3       0   22420  182808       0  182808  182808     0.0    0.00  2242.0 18280.8    0.00 18280.8 18280.8    0.00
 2020 109     4       0   22419  182803       0  182803  182803     0.0    0.00  2241.9 18280.3    0.00 18280.3 18280.3    0.00
 2020 110     5       0   22419  182798       0  182798  182798     0.0    0.00  2241.9 18279.8    0.00 18279.8 18279.8    0.00
 2020 111     6       0   22418  182792       0  182792  182792     0.0    0.00  2241.8 18279.2    0.00 18279.2 18279.2    0.00
 2020 112     7       0   22417  182786       0  182786  182786     0.0    0.00  2241.7 18278.6    0.00 18278.6 18278.6    0.00
 2020 113     8       0   22416  182779       0  182779  182779     0.0    0.00  2241.6 18277.9    0.00 18277.9 18277.9    0.00
 2020 114     9       0   22415  182772       0  182772  182772     0.0    0.00  2241.5 18277.2    0.00 18277.2 18277.2    0.00
 2020 115    10       0   22414  182765       0  182765  182765     0.0    0.00  2241.4 18276.5    0.00 18276.5 18276.5    0.00
 2020 116    11       0   22414  182758       0  182758  182758     0.0    0.00  2241.4 18275.8    0.00 18275.8 18275.8    0.00
 2020 117    12       0   22413  182751       0  182751  182751     0.0    0.00  2241.3 18275.1    0.00 18275.1 18275.1    0.00
 2020 118    13       0   22412  182744       0  182744  182744     0.0    0.00  2241.2 18274.4    0.00 18274.4 18274.4    0.00
 2020 119    14       0   22411  182736       0  182736  182736     0.0    0.00  2241.1 18273.6    0.00 18273.6 18273.6    0.00
 2020 120    15       0   22410  182728       0  182728  182728     0.0    0.00  2241.0 18272.8    0.00 18272.8 18272.8    0.00
 2020 121    16       0   22408  182719       0  182719  182719     0.0    0.00  2240.8 18271.9    0.00 18271.9 18271.9    0.00
 2020 122    17       0   22407  182709       0  182709  182709     0.0    0.00  2240.7 18270.9    0.00 18270.9 18270.9    0.00
 2020 123    18       0   22406  182699       0  182699  182699     0.0    0.00  2240.6 18269.9    0.00 18269.9 18269.9    0.00
 2020 124    19       0   22404  182689       0  182689  182689     0.0    0.00  2240.4 18268.9    0.00 18268.9 18268.9    0.00
 2020 125    20       0   22403  182680       0  182680  182680     0.0    0.00  2240.3 18268.0    0.00 18268.0 18268.0    0.00
 2020 126    21       0   22402  182670       0  182670  182670     0.0    0.00  2240.2 18267.0    0.00 18267.0 18267.0    0.00
 2020 127    22       0   22400  182660       0  182660  182660     0.0    0.00  2240.0 18266.0    0.00 18266.0 18266.0    0.00
 2020 128    23       0   22399  182651       0  182651  182651     0.0    0.00  2239.9 18265.1    0.00 18265.1 18265.1    0.00
 2020 129    24       0   22398  182642       0  182642  182642     0.0    0.00  2239.8 18264.2    0.00 18264.2 18264.2    0.00
 2020 130    25       0   22397  182634       0  182634  182634     0.0    0.00  2239.7 18263.4    0.00 18263.4 18263.4    0.00
 2020 131    26       0   22396  182626       0  182626  182626     0.0    0.00  2239.6 18262.6    0.00 18262.6 18262.6    0.00
 2020 132    27       0   22395  182619       0  182619  182619     0.0    0.00  2239.5 18261.9    0.00 18261.9 18261.9    0.00
 2020 133    28       0   22394  182613       0  182613  182613     0.0    0.00  2239.4 18261.3    0.00 18261.3 18261.3    0.00
 2020 134    29       0   22393  182608       0  182608  182608     0.0    0.00  2239.3 18260.8    0.00 18260.8 18260.8    0.00
 2020 135    30       0   22393  182603       0  182603  182603     0.0    0.00  2239.3 18260.3    0.00 18260.3 18260.3    0.00
 2020 136    31       0   22392  182598       0  182598  182598     0.0    0.00  2239.2 18259.8    0.00 18259.8 18259.8    0.00
 2020 137    32       0   22392  182592       0  182592  182592     0.0    0.00  2239.2 18259.2    0.00 18259.2 18259.2    0.00
 2020 138    33       0   22391  182585       0  182585  182585     0.0    0.00  2239.1 18258.5    0.00 18258.5 18258.5    0.00
 2020 139    34       0   22390  182577       0  182577  182577     0.0    0.00  2239.0 18257.7    0.00 18257.7 18257.7    0.00
 2020 140    35       0   22388  182568       0  182568  182568     0.0    0.00  2238.8 18256.8    0.00 18256.8 18256.8    0.00
 2020 141    36       0   22387  182558       0  182558  182558     0.0    0.00  2238.7 18255.8    0.00 18255.8 18255.8    0.00
 2020 142    37       0   22386  182549       0  182549  182549     0.0    0.00  2238.6 18254.9    0.00 18254.9 18254.9    0.00
 2020 143    38       0   22385  182540       0  182540  182540     0.0    0.00  2238.5 18254.0    0.00 18254.0 18254.0    0.00
 2020 144    39       0   22383  182531       0  182531  182531     0.0    0.00  2238.3 18253.1    0.00 18253.1 18253.1    0.00
 2020 145    40       0   22382  182521       0  182521  182521     0.0    0.00  2238.2 18252.1    0.00 18252.1 18252.1    0.00
 2020 146    41       0   22381  182512       0  182512  182512     0.0    0.00  2238.1 18251.1    0.00 18251.1 18251.1    0.00
 2020 147    42       0   22380  182502       0  182502  182502     0.0    0.00  2238.0 18250.2    0.00 18250.2 18250.2    0.00
 2020 148    43       0   22378  182494       0  182494  182494     0.0    0.00  2237.8 18249.4    0.00 18249.4 18249.4    0.00
 2020 149    44       0   22377  182485       0  182485  182485     0.0    0.00  2237.7 18248.5    0.00 18248.5 18248.5    0.00
 2020 150    45       0   22376  182476       0  182476  182476     0.0    0.00  2237.6 18247.6    0.00 18247.6 18247.6    0.00
 2020 151    46       0   22375  182468       0  182468  182468     0.0    0.00  2237.5 18246.8    0.00 18246.8 18246.8    0.00
 2020 152    47       0   22374  182458       0  182458  182458     0.0    0.00  2237.4 18245.8    0.00 18245.8 18245.8    0.00
 2020 153    48       0   22372  182447       0  182447  182447     0.0    0.00  2237.2 18244.7    0.00 18244.7 18244.7    0.00
 2020 154    49       0   22370  182435       0  182435  182435     0.0    0.00  2237.0 18243.5    0.00 18243.5 18243.5    0.00
 2020 155    50       0   22369  182423       0  182423  182423     0.0    0.00  2236.9 18242.3    0.00 18242.3 18242.3    0.00
 2020 156    51       0   22367  182410       0  182410  182410     0.0    0.00  2236.7 18241.0    0.00 18241.0 18241.0    0.00
 2020 157    52       0   22365  182397       0  182397  182397     0.0    0.00  2236.5 18239.7    0.00 18239.7 18239.7    0.00
 2020 158    53       0   22363  182384       0  182384  182384     0.0    0.00  2236.3 18238.4    0.00 18238.4 18238.4    0.00
 2020 159    54       0   22361  182371       0  182371  182371     0.0    0.00  2236.1 18237.1    0.00 18237.1 18237.1    0.00
 2020 160    55       0   22360  182358       0  182358  182358     0.0    0.00  2236.0 18235.8    0.00 18235.8 18235.8    0.00
 2020 161    56       0   22358  182344       0  182344  182344     0.0    0.00  2235.8 18234.4    0.00 18234.4 18234.4    0.00
 2020 162    57       0   22356  182332       0  182332  182332     0.0    0.00  2235.6 18233.2    0.00 18233.2 18233.2    0.00
 2020 163    58       0   22354  182320       0  182320  182320     0.0    0.00  2235.4 18232.0    0.00 18232.0 18232.0    0.00
 2020 164    59       0   22353  182309       0  182309  182309     0.1    0.00  2235.3 18230.9    0.00 18230.9 18230.9    0.00
 2020 165    60       0   22351  182298       0  182298  182298     0.2    0.00  2235.1 18229.8    0.00 18229.8 18229.7    0.01
 2020 166    61       0   22350  182287       0  182287  182286     0.3    0.00  2235.0 18228.6    0.00 18228.6 18228.6    0.01
 2020 167    62       0   22348  182275       0  182275  182274     0.4    0.00  2234.8 18227.4    0.00 18227.4 18227.4    0.01
 2020 168    63       0   22346  182263       0  182263  182263     0.6    0.00  2234.6 18226.3    0.00 18226.3 18226.3    0.02
 2020 169    64       0   22345  182252       0  182252  182251     0.8    0.00  2234.5 18225.1    0.00 18225.1 18225.1    0.02
 2020 170    65       0   22343  182240       0  182240  182239     1.0    0.00  2234.3 18224.0    0.00 18224.0 18223.9    0.03
 2020 171    66       0   22341  182230       0  182230  182228     1.3    0.00  2234.1 18222.9    0.00 18222.9 18222.8    0.04
 2020 172    67       0   22339  182220       0  182220  182218     1.7    0.00  2233.9 18221.8    0.00 18221.8 18221.8    0.06
 2020 173    68       0   22338  182210       0  182210  182208     2.2    0.00  2233.8 18220.8    0.00 18220.8 18220.8    0.07
 2020 174    69       0   22336  182201       0  182201  182198     2.7    0.00  2233.6 18219.9    0.00 18219.9 18219.8    0.09
 2020 175    70       0   22335  182192       0  182192  182188     3.3    0.00  2233.5 18218.9    0.00 18218.9 18218.8    0.10
 2020 176    71       0   22334  182183       0  182183  182179     4.0    0.00  2233.4 18218.0    0.00 18218.0 18217.8    0.13
 2020 177    72       0   22332  182173       0  182173  182168     4.9    0.00  2233.2 18217.0    0.00 18217.0 18216.8    0.15
 2020 178    73       0   22330  182163       0  182163  182158     5.8    0.00  2233.0 18215.9    0.00 18215.9 18215.8    0.18
 2020 179    74       0   22329  182154       0  182154  182147     6.9    0.00  2232.9 18214.9    0.00 18214.9 18214.7    0.22
 2020 180    75       0   22328  182145       0  182145  182137     8.0    0.00  2232.8 18214.0    0.00 18214.0 18213.7    0.25
 2020 181    76       0   22326  182137       0  182137  182128     9.3    0.00  2232.6 18213.0    0.00 18213.0 18212.8    0.29
 2020 182    77       0   22325  182128       0  182128  182117    10.6    0.00  2232.5 18212.0    0.00 18212.0 18211.7    0.33
 2020 183    78       0   22324  182119       0  182119  182107    12.1    0.00  2232.3 18211.1    0.00 18211.1 18210.7    0.37
 2020 184    79       0   22322  182112       0  182112  182098    13.9    0.00  2232.2 18210.2    0.00 18210.2 18209.8    0.41
 2020 185    80       0   22322  182105       0  182105  182089    15.9    0.00  2232.2 18209.4    0.00 18209.4 18208.9    0.46
 2020 186    81       0   22321  182099       0  182099  182081    18.1    0.00  2232.1 18208.6    0.00 18208.6 18208.1    0.50
 2020 187    82       0   22320  182094       0  182094  182074    20.5    0.00  2232.0 18207.9    0.00 18207.9 18207.3    0.55
 2020 188    83       0   22320  182090       0  182090  182067    23.2    0.00  2232.0 18207.2    0.00 18207.2 18206.6    0.60
 2020 189    84       0   22319  182086       0  182086  182060    25.9    0.00  2231.9 18206.6    0.00 18206.6 18206.0    0.65
 2020 190    85       0   22319  182082       0  182082  182053    28.8    0.00  2231.9 18206.0    0.00 18206.0 18205.3    0.70
 2020 191    86       0   22318  182079       0  182079  182047    31.7    0.00  2231.8 18205.4    0.00 18205.4 18204.7    0.75
 2020 192    87       0   22318  182075       0  182075  182041    34.7    0.00  2231.8 18204.8    0.00 18204.8 18204.0    0.80
 2020 193    88       0   22317  182072       0  182072  182034    37.7    0.00  2231.7 18204.3    0.00 18204.3 18203.4    0.86
 2020 194    89       0   22317  182069       0  182069  182028    40.7    0.00  2231.7 18203.7    0.00 18203.7 18202.8    0.91
 2020 195    90       0   22316  182066       0  182066  182022    43.7    0.00  2231.6 18203.1    0.00 18203.1 18202.2    0.96
 2020 196    91       0   22316  182063       0  182063  182016    46.8    0.00  2231.6 18202.6    0.00 18202.6 18201.6    1.01
 2020 197    92       0   22316  182060       0  182060  182010    49.8    0.00  2231.5 18202.0    0.00 18202.0 18201.0    1.07
 2020 198    93       0   22315  182057       0  182057  182004    52.9    0.00  2231.5 18201.5    0.00 18201.5 18200.4    1.12
 2020 199    94       0   22315  182055       0  182055  181999    55.9    0.00  2231.5 18201.0    0.00 18201.0 18199.8    1.17
 2020 200    95       0   22314  182052       0  182052  181993    59.0    0.00  2231.4 18200.5    0.00 18200.5 18199.3    1.23
 2020 201    96       0   22314  182049       0  182049  181987    61.8    0.00  2231.4 18199.9    0.00 18199.9 18198.6    1.28
 2020 202    97       0   22313  182046       0  182046  181981    64.8    0.00  2231.3 18199.4    0.00 18199.4 18198.0    1.34
 2020 203    98       0   22313  182043       0  182043  181975    67.9    0.00  2231.3 18198.8    0.00 18198.8 18197.4    1.39
 2020 204    99       0   22312  182041       0  182041  181969    71.2    0.00  2231.2 18198.3    0.00 18198.3 18196.9    1.45
 2020 205   100       0   22312  182039       0  182039  181964    74.7    0.00  2231.2 18197.8    0.00 18197.8 18196.3    1.50
 2020 206   101       0   22311  182037       0  182037  181959    78.2    0.00  2231.1 18197.4    0.00 18197.4 18195.8    1.56
 2020 207   102       0   22311  182035       0  182035  181954    81.9    0.00  2231.1 18196.9    0.00 18196.9 18195.3    1.62
 2020 208   103       0   22311  182034       0  182034  181949    85.6    0.00  2231.0 18196.5    0.00 18196.5 18194.8    1.68
 2020 209   104       0   22309  182029       0  182029  181941    88.0    0.00  2230.9 18195.8    0.00 18195.8 18194.0    1.74
 2020 210   105       0   22307  182024       0  182024  181934    90.2    0.00  2230.7 18195.1    0.00 18195.1 18193.3    1.81
 2020 211   106       0   22306  182020       0  182020  181927    92.6    0.00  2230.6 18194.4    0.00 18194.4 18192.6    1.87
 2020 212   107       0   22305  182015       0  182015  181920    95.0    0.00  2230.4 18193.8    0.00 18193.8 18191.9    1.94
 2020 213   108       0   22303  182011       0  182011  181914    97.7    0.00  2230.3 18193.2    0.00 18193.2 18191.2    2.00
 2020 214   109       0   22302  182008       0  182008  181907   100.5    0.00  2230.1 18192.6    0.00 18192.6 18190.6    2.06
 2020 215   110       0   22301  182005       0  182005  181901   103.4    0.00  2230.0 18192.1    0.00 18192.1 18189.9    2.12
 2020 216   111       0   22300  182002       0  182002  181895   106.4    0.00  2229.9 18191.5    0.00 18191.5 18189.3    2.18
 2020 217   112       0   22299  181999       0  181999  181889   109.3    0.00  2229.8 18191.0    0.00 18191.0 18188.7    2.25
 2020 218   113       0   22298  181996       0  181996  181884   112.3    0.00  2229.7 18190.4    0.00 18190.4 18188.1    2.31
 2020 219   114       0   22297  181993       0  181993  181878   115.4    0.00  2229.6 18189.9    0.00 18189.9 18187.6    2.37
 2020 220   115       0   22296  181991       0  181991  181872   118.3    0.00  2229.5 18189.4    0.00 18189.4 18187.0    2.44
 2020 221   116       0   22295  181988       0  181988  181866   121.3    0.00  2229.4 18188.9    0.00 18188.9 18186.4    2.50
 2020 222   117       0   22294  181985       0  181985  181861   124.4    0.00  2229.3 18188.3    0.00 18188.3 18185.8    2.56
 2020 223   118       0   22293  181982       0  181982  181855   127.5    0.00  2229.2 18187.8    0.00 18187.8 18185.2    2.63
 2020 224   119       0   22292  181980       0  181980  181849   130.8    0.00  2229.1 18187.3    0.00 18187.3 18184.6    2.70
 2020 225   120       0   22292  181978       0  181978  181844   134.1    0.00  2229.1 18186.8    0.00 18186.8 18184.1    2.77
 2020 226   121       0   22291  181976       0  181976  181839   137.6    0.00  2229.0 18186.4    0.00 18186.4 18183.5    2.83
 2020 227   122       0   22291  181975       0  181975  181833   141.1    0.00  2229.0 18185.9    0.00 18185.9 18183.0    2.90
 2020 228   123       0   22290  181973       0  181973  181829   144.7    0.00  2228.9 18185.5    0.00 18185.5 18182.5    2.97
 2020 229   124       0   22290  181972       0  181972  181824   148.3    0.00  2228.9 18185.1    0.00 18185.1 18182.0    3.04
 2020 230   125       0   22289  181971       0  181971  181819   151.9    0.00  2228.8 18184.7    0.00 18184.7 18181.6    3.11
 2020 231   126       0   22288  181968       0  181968  181813   155.0    0.00  2228.7 18184.2    0.00 18184.2 18181.0    3.17
 2020 232   127       0   22288  181966       0  181966  181808   158.1    0.00  2228.6 18183.6    0.00 18183.6 18180.4    3.24
 2020 233   128       0   22287  181964       0  181964  181802   161.4    0.00  2228.6 18183.2    0.00 18183.2 18179.9    3.31
 2020 234   129       0   22286  181962       0  181962  181797   164.8    0.00  2228.5 18182.7    0.00 18182.7 18179.3    3.37
 2020 235   130       0   22286  181960       0  181960  181792   168.2    0.00  2228.4 18182.3    0.00 18182.3 18178.8    3.44
 2020 236   131       0   22285  181959       0  181959  181787   171.7    0.00  2228.4 18181.8    0.00 18181.8 18178.3    3.51
 2020 237   132       0   22285  181958       0  181958  181783   175.3    0.00  2228.3 18181.4    0.00 18181.4 18177.9    3.58
 2020 238   133       0   22284  181955       0  181955  181777   178.2    0.00  2228.2 18180.9    0.00 18180.9 18177.3    3.65
 2020 239   134       0   22283  181953       0  181953  181771   181.3    0.00  2228.1 18180.4    0.00 18180.4 18176.7    3.71
 2020 240   135       0   22282  181950       0  181950  181766   184.5    0.00  2228.0 18179.9    0.00 18179.9 18176.1    3.78
 2020 241   136       0   22281  181948       0  181948  181760   187.7    0.00  2228.0 18179.4    0.00 18179.4 18175.6    3.85
 2020 242   137       0   22280  181942       0  181942  181753   189.3    0.00  2227.8 18178.7    0.00 18178.7 18174.8    3.91
 2020 243   138       0   22278  181937       0  181937  181746   190.7    0.00  2227.7 18178.1    0.00 18178.1 18174.1    3.98
 2020 244   139       0   22277  181931       0  181931  181739   192.2    0.00  2227.5 18177.4    0.00 18177.4 18173.4    4.04
 2020 245   140       0   22275  181925       0  181925  181732   193.1    0.00  2227.4 18176.7    0.00 18176.7 18172.6    4.11
 2020 246   141       0   22274  181920       0  181920  181725   194.1    0.00  2227.2 18176.1    0.00 18176.1 18171.9    4.17
 2020 247   142       0   22273  181914       0  181914  181719   195.5    0.00  2227.1 18175.5    0.00 18175.5 18171.2    4.22
 2020 248   143       0   22272  181909       0  181909  181712   196.9    0.00  2227.0 18174.8    0.00 18174.8 18170.6    4.28
 2020 249   144       0   22271  181904       0  181904  181706   198.5    0.00  2226.8 18174.2    0.00 18174.2 18169.9    4.34
 2020 250   145       0   22269  181899       0  181899  181699   200.2    0.00  2226.7 18173.6    0.00 18173.6 18169.2    4.40
 2020 251   146       0   22268  181894       0  181894  181692   201.8    0.00  2226.6 18172.9    0.00 18172.9 18168.4    4.45
 2020 252   147       0   22267  181888       0  181888  181685   203.0    0.00  2226.4 18172.2    0.00 18172.2 18167.7    4.50
 2020 253   148       0   22265  181882       0  181882  181678   204.3    0.00  2226.3 18171.5    0.00 18171.5 18167.0    4.55
 2020 254   149       0   22264  181877       0  181877  181672   205.4    0.00  2226.2 18170.9    0.00 18170.9 18166.3    4.62
 2020 255   150       0   22263  181873       0  181873  181666   206.6    0.00  2226.1 18170.4    0.00 18170.4 18165.7    4.69
 2020 256   151       0   22263  181870       0  181870  181662   208.1    0.00  2226.0 18170.0    0.00 18170.0 18165.2    4.76
 2020 257   152       0   22262  181867       0  181867  181658   209.8    0.00  2225.9 18169.6    0.00 18169.6 18164.8    4.83
 2020 258   153       0   22262  181864       0  181864  181653   211.1    0.00  2225.9 18169.2    0.00 18169.2 18164.3    4.90
 2020 259   154       0   22261  181858       0  181858  181647   211.9    0.00  2225.8 18168.6    0.00 18168.6 18163.6    4.97
 2020 260   155       0   22259  181852       0  181852  181640   212.2    0.00  2225.7 18167.9    0.00 18167.9 18162.9    5.03
 2020 261   156       0   22258  181844       0  181844  181632   212.0    0.00  2225.5 18167.2    0.00 18167.2 18162.1    5.09
 2020 262   157       0   22257  181837       0  181837  181625   212.0    0.00  2225.4 18166.5    0.00 18166.5 18161.3    5.14
 2020 263   158       0   22256  181830       0  181830  181618   212.1    0.00  2225.3 18165.8    0.00 18165.8 18160.6    5.19
 2020 264   159       0   22255  181823       0  181823  181611   212.5    0.00  2225.2 18165.1    0.00 18165.1 18159.8    5.23
 2020 265   160       0   22254  181817       0  181817  181604   212.9    0.00  2225.0 18164.4    0.00 18164.4 18159.1    5.28
 2020 266   161       0   22252  181810       0  181810  181596   213.2    0.00  2224.9 18163.6    0.00 18163.6 18158.3    5.32
 2020 267   162       0   22251  181802       0  181802  181589   213.3    0.00  2224.8 18162.9    0.00 18162.9 18157.5    5.36
 2020 268   163       0   22250  181795       0  181795  181581   213.5    0.00  2224.7 18162.1    0.00 18162.1 18156.7    5.39
 2020 269   164       0   22249  181787       0  181787  181574   213.7    0.00  2224.5 18161.3    0.00 18161.3 18155.9    5.43
 2020 270   165       0   22247  181779       0  181779  181565   213.9    0.00  2224.4 18160.5    0.00 18160.5 18155.0    5.46
 2020 271   166       0   22246  181771       0  181771  181557   214.2    0.00  2224.2 18159.6    0.00 18159.6 18154.2    5.48
 2020 272   167       0   22245  181760       0  181760  181549   211.4    0.00  2224.1 18158.7    0.00 18158.7 18153.3    5.43
 2020 273   168       0   22243  181751       0  181751  181541   209.1    0.00  2224.0 18157.9    0.00 18157.9 18152.5    5.38
 2020 274   169       0   22242  181741       0  181741  181534   207.0    0.00  2223.9 18157.1    0.00 18157.1 18151.8    5.34
 2020 275   170       0   22241  181733       0  181733  181528   205.2    0.00  2223.8 18156.4    0.00 18156.4 18151.1    5.30
 2020 276   171       0   22240  181725       0  181725  181521   203.7    0.00  2223.7 18155.7    0.00 18155.7 18150.5    5.27
 2020 277   172       0   22240  181718       0  181718  181515   202.3    0.00  2223.6 18155.1    0.00 18155.1 18149.8    5.23

*DSSAT Cropping System Model Ver. 4.7.5.035 -develop  JUN 14, 2021 09:08:55

*RUN   2        : 20 IRRIG, PETPEN KCB..... MZCER047 KSRT2001    2
 MODEL          : MZCER047 - Maize
 EXPERIMENT     : KSRT2001 SB ARM 2020 KS, IRRIGATED
 DATA PATH      :
 TREATMENT  2   : 20 IRRIG, PETPEN KCB..... MZCER047
  
@YEAR DOY   DAS    OMAC    SCDD    SOCD    SC0D    SCTD   SOMCT    LCTD    ONAC    SNDD    SOND    SN0D    SNTD   SOMNT    LNTD
 2020 105     0       0   22422  182825       0  182825  182825     0.0    0.00  2242.2 18282.5    0.00 18282.5 18282.5    0.00
 2020 106     1       0   22421  182819       0  182819  182819     0.0    0.00  2242.1 18281.9    0.00 18281.9 18281.9    0.00
 2020 107     2       0   22421  182814       0  182814  182814     0.0    0.00  2242.1 18281.4    0.00 18281.4 18281.4    0.00
 2020 108     3       0   22420  182808       0  182808  182808     0.0    0.00  2242.0 18280.8    0.00 18280.8 18280.8    0.00
 2020 109     4       0   22419  182803       0  182803  182803     0.0    0.00  2241.9 18280.3    0.00 18280.3 18280.3    0.00
 2020 110     5       0   22419  182798       0  182798  182798     0.0    0.00  2241.9 18279.8    0.00 18279.8 18279.8    0.00
 2020 111     6       0   22418  182792       0  182792  182792     0.0    0.00  2241.8 18279.2    0.00 18279.2 18279.2    0.00
 2020 112     7       0   22417  182786       0  182786  182786     0.0    0.00  2241.7 18278.6    0.00 18278.6 18278.6    0.00
 2020 113     8       0   22416  182779       0  182779  182779     0.0    0.00  2241.6 18277.9    0.00 18277.9 18277.9    0.00
 2020 114     9       0   22415  182772       0  182772  182772     0.0    0.00  2241.5 18277.2    0.00 18277.2 18277.2    0.00
 2020 115    10       0   22414  182765       0  182765  182765     0.0    0.00  2241.4 18276.5    0.00 18276.5 18276.5    0.00
 2020 116    11       0   22413  182758       0  182758  182758     0.0    0.00  2241.3 18275.8    0.00 18275.8 18275.8    0.00
 2020 117    12       0   22413  182751       0  182751  182751     0.0    0.00  2241.3 18275.1    0.00 18275.1 18275.1    0.00
 2020 118    13       0   22412  182744       0  182744  182744     0.0    0.00  2241.2 18274.4    0.00 18274.4 18274.4    0.00
 2020 119    14       0   22411  182736       0  182736  182736     0.0    0.00  2241.1 18273.6    0.00 18273.6 18273.6    0.00
 2020 120    15       0   22410  182728       0  182728  182728     0.0    0.00  2241.0 18272.8    0.00 18272.8 18272.8    0.00
 2020 121    16       0   22408  182719       0  182719  182719     0.0    0.00  2240.8 18271.9    0.00 18271.9 18271.9    0.00
 2020 122    17       0   22407  182709       0  182709  182709     0.0    0.00  2240.7 18270.9    0.00 18270.9 18270.9    0.00
 2020 123    18       0   22406  182699       0  182699  182699     0.0    0.00  2240.6 18269.9    0.00 18269.9 18269.9    0.00
 2020 124    19       0   22404  182689       0  182689  182689     0.0    0.00  2240.4 18268.9    0.00 18268.9 18268.9    0.00
 2020 125    20       0   22403  182679       0  182679  182679     0.0    0.00  2240.3 18267.9    0.00 18267.9 18267.9    0.00
 2020 126    21       0   22402  182669       0  182669  182669     0.0    0.00  2240.2 18266.9    0.00 18266.9 18266.9    0.00
 2020 127    22       0   22400  182660       0  182660  182660     0.0    0.00  2240.0 18266.0    0.00 18266.0 18266.0    0.00
 2020 128    23       0   22399  182651       0  182651  182651     0.0    0.00  2239.9 18265.1    0.00 18265.1 18265.1    0.00
 2020 129    24       0   22398  182642       0  182642  182642     0.0    0.00  2239.8 18264.2    0.00 18264.2 18264.2    0.00
 2020 130    25       0   22397  182634       0  182634  182634     0.0    0.00  2239.7 18263.4    0.00 18263.4 18263.4    0.00
 2020 131    26       0   22396  182626       0  182626  182626     0.0    0.00  2239.6 18262.6    0.00 18262.6 18262.6    0.00
 2020 132    27       0   22395  182619       0  182619  182619     0.0    0.00  2239.5 18261.9    0.00 18261.9 18261.9    0.00
 2020 133    28       0   22394  182612       0  182612  182612     0.0    0.00  2239.4 18261.2    0.00 18261.2 18261.2    0.00
 2020 134    29       0   22393  182608       0  182608  182608     0.0    0.00  2239.3 18260.8    0.00 18260.8 18260.8    0.00
 2020 135    30       0   22393  182603       0  182603  182603     0.0    0.00  2239.3 18260.3    0.00 18260.3 18260.3    0.00
 2020 136    31       0   22392  182597       0  182597  182597     0.0    0.00  2239.2 18259.7    0.00 18259.7 18259.7    0.00
 2020 137    32       0   22392  182592       0  182592  182592     0.0    0.00  2239.2 18259.2    0.00 18259.2 18259.2    0.00
 2020 138    33       0   22391  182585       0  182585  182585     0.0    0.00  2239.1 18258.5    0.00 18258.5 18258.5    0.00
 2020 139    34       0   22390  182576       0  182576  182576     0.0    0.00  2239.0 18257.6    0.00 18257.6 18257.6    0.00
 2020 140    35       0   22388  182567       0  182567  182567     0.0    0.00  2238.8 18256.7    0.00 18256.7 18256.7    0.00
 2020 141    36       0   22387  182558       0  182558  182558     0.0    0.00  2238.7 18255.8    0.00 18255.8 18255.8    0.00
 2020 142    37       0   22386  182549       0  182549  182549     0.0    0.00  2238.6 18254.9    0.00 18254.9 18254.9    0.00
 2020 143    38       0   22385  182539       0  182539  182539     0.0    0.00  2238.5 18254.0    0.00 18254.0 18254.0    0.00
 2020 144    39       0   22383  182530       0  182530  182530     0.0    0.00  2238.3 18253.0    0.00 18253.0 18253.0    0.00
 2020 145    40       0   22382  182520       0  182520  182520     0.0    0.00  2238.2 18252.1    0.00 18252.1 18252.1    0.00
 2020 146    41       0   22381  182511       0  182511  182511     0.0    0.00  2238.1 18251.1    0.00 18251.1 18251.1    0.00
 2020 147    42       0   22379  182502       0  182502  182502     0.0    0.00  2237.9 18250.2    0.00 18250.2 18250.2    0.00
 2020 148    43       0   22378  182493       0  182493  182493     0.0    0.00  2237.8 18249.3    0.00 18249.3 18249.3    0.00
 2020 149    44       0   22377  182484       0  182484  182484     0.0    0.00  2237.7 18248.4    0.00 18248.4 18248.4    0.00
 2020 150    45       0   22376  182476       0  182476  182476     0.0    0.00  2237.6 18247.6    0.00 18247.6 18247.6    0.00
 2020 151    46       0   22375  182467       0  182467  182467     0.0    0.00  2237.5 18246.7    0.00 18246.7 18246.7    0.00
 2020 152    47       0   22373  182457       0  182457  182457     0.0    0.00  2237.3 18245.7    0.00 18245.7 18245.7    0.00
 2020 153    48       0   22372  182446       0  182446  182446     0.0    0.00  2237.2 18244.6    0.00 18244.6 18244.6    0.00
 2020 154    49       0   22370  182434       0  182434  182434     0.0    0.00  2237.0 18243.4    0.00 18243.4 18243.4    0.00
 2020 155    50       0   22369  182422       0  182422  182422     0.0    0.00  2236.9 18242.2    0.00 18242.2 18242.2    0.00
 2020 156    51       0   22367  182409       0  182409  182409     0.0    0.00  2236.7 18240.9    0.00 18240.9 18240.9    0.00
 2020 157    52       0   22365  182396       0  182396  182396     0.0    0.00  2236.5 18239.6    0.00 18239.6 18239.6    0.00
 2020 158    53       0   22363  182383       0  182383  182383     0.0    0.00  2236.3 18238.3    0.00 18238.3 18238.3    0.00
 2020 159    54       0   22361  182370       0  182370  182370     0.0    0.00  2236.1 18237.0    0.00 18237.0 18237.0    0.00
 2020 160    55       0   22360  182356       0  182356  182356     0.0    0.00  2236.0 18235.6    0.00 18235.6 18235.6    0.00
 2020 161    56       0   22358  182343       0  182343  182343     0.0    0.00  2235.8 18234.3    0.00 18234.3 18234.3    0.00
 2020 162    57       0   22356  182330       0  182330  182330     0.0    0.00  2235.6 18233.0    0.00 18233.0 18233.0    0.00
 2020 163    58       0   22354  182318       0  182318  182318     0.0    0.00  2235.4 18231.8    0.00 18231.8 18231.8    0.00
 2020 164    59       0   22353  182307       0  182307  182307     0.0    0.00  2235.3 18230.7    0.00 18230.7 18230.7    0.00
 2020 165    60       0   22351  182296       0  182296  182296     0.0    0.00  2235.1 18229.6    0.00 18229.6 18229.6    0.00
 2020 166    61       0   22350  182284       0  182284  182284     0.0    0.00  2235.0 18228.4    0.00 18228.4 18228.4    0.00
 2020 167    62       0   22348  182272       0  182272  182272     0.0    0.00  2234.8 18227.2    0.00 18227.2 18227.2    0.00
 2020 168    63       0   22346  182259       0  182259  182259     0.0    0.00  2234.6 18225.9    0.00 18225.9 18225.9    0.00
 2020 169    64       0   22344  182246       0  182246  182246     0.0    0.00  2234.4 18224.6    0.00 18224.6 18224.6    0.00
 2020 170    65       0   22343  182233       0  182233  182233     0.1    0.00  2234.3 18223.3    0.00 18223.3 18223.3    0.00
 2020 171    66       0   22341  182220       0  182220  182220     0.1    0.00  2234.1 18222.0    0.00 18222.0 18222.0    0.00
 2020 172    67       0   22339  182208       0  182208  182208     0.2    0.00  2233.9 18220.8    0.00 18220.8 18220.8    0.01
 2020 173    68       0   22338  182197       0  182197  182197     0.2    0.00  2233.8 18219.7    0.00 18219.7 18219.7    0.01
 2020 174    69       0   22336  182186       0  182186  182186     0.3    0.00  2233.6 18218.6    0.00 18218.6 18218.6    0.01
 2020 175    70       0   22335  182175       0  182175  182175     0.3    0.00  2233.5 18217.5    0.00 18217.5 18217.5    0.01
 2020 176    71       0   22333  182164       0  182164  182164     0.4    0.00  2233.3 18216.4    0.00 18216.4 18216.4    0.01
 2020 177    72       0   22332  182153       0  182153  182152     0.5    0.00  2233.2 18215.2    0.00 18215.2 18215.2    0.02
 2020 178    73       0   22330  182140       0  182140  182140     0.7    0.00  2233.0 18214.0    0.00 18214.0 18214.0    0.02
 2020 179    74       0   22328  182128       0  182128  182128     0.8    0.00  2232.8 18212.8    0.00 18212.8 18212.8    0.03
 2020 180    75       0   22327  182116       0  182116  182115     1.0    0.00  2232.7 18211.6    0.00 18211.6 18211.5    0.03
 2020 181    76       0   22325  182104       0  182104  182103     1.3    0.00  2232.5 18210.3    0.00 18210.3 18210.3    0.04
 2020 182    77       0   22324  182091       0  182091  182089     1.6    0.00  2232.4 18209.0    0.00 18209.0 18208.9    0.05
 2020 183    78       0   22322  182078       0  182078  182076     2.0    0.00  2232.2 18207.7    0.00 18207.7 18207.6    0.07
 2020 184    79       0   22320  182066       0  182066  182064     2.5    0.00  2232.0 18206.4    0.00 18206.4 18206.4    0.08
 2020 185    80       0   22319  182055       0  182055  182052     3.0    0.00  2231.9 18205.3    0.00 18205.3 18205.2    0.10
 2020 186    81       0   22317  182044       0  182044  182040     3.7    0.00  2231.8 18204.1    0.00 18204.1 18204.0    0.12
 2020 187    82       0   22316  182034       0  182034  182030     4.5    0.00  2231.6 18203.1    0.00 18203.1 18203.0    0.14
 2020 188    83       0   22315  182025       0  182025  182020     5.5    0.00  2231.5 18202.2    0.00 18202.2 18202.0    0.17
 2020 189    84       0   22315  182017       0  182017  182011     6.4    0.00  2231.5 18201.3    0.00 18201.3 18201.1    0.20
 2020 190    85       0   22314  182009       0  182009  182002     7.6    0.00  2231.4 18200.4    0.00 18200.4 18200.2    0.23
 2020 191    86       0   22313  182002       0  182002  181993     8.9    0.00  2231.3 18199.6    0.00 18199.6 18199.3    0.26
 2020 192    87       0   22312  181995       0  181995  181984    10.2    0.00  2231.2 18198.7    0.00 18198.7 18198.4    0.29
 2020 193    88       0   22312  181988       0  181988  181976    11.7    0.00  2231.2 18197.9    0.00 18197.9 18197.6    0.32
 2020 194    89       0   22311  181981       0  181981  181968    13.2    0.00  2231.1 18197.2    0.00 18197.2 18196.8    0.36
 2020 195    90       0   22310  181975       0  181975  181960    14.7    0.00  2231.0 18196.4    0.00 18196.4 18196.0    0.39
 2020 196    91       0   22310  181969       0  181969  181953    16.3    0.00  2231.0 18195.7    0.00 18195.7 18195.3    0.43
 2020 197    92       0   22309  181964       0  181964  181946    18.0    0.00  2230.9 18195.0    0.00 18195.0 18194.5    0.46
 2020 198    93       0   22309  181958       0  181958  181939    19.7    0.00  2230.9 18194.3    0.00 18194.3 18193.8    0.50
 2020 199    94       0   22308  181954       0  181954  181932    21.5    0.00  2230.8 18193.7    0.00 18193.7 18193.2    0.53
 2020 200    95       0   22308  181949       0  181949  181925    23.5    0.00  2230.8 18193.1    0.00 18193.1 18192.5    0.57
 2020 201    96       0   22307  181944       0  181944  181918    25.6    0.00  2230.7 18192.4    0.00 18192.4 18191.8    0.61
 2020 202    97       0   22306  181939       0  181939  181912    27.7    0.00  2230.6 18191.8    0.00 18191.8 18191.1    0.64
 2020 203    98       0   22306  181935       0  181935  181905    29.9    0.00  2230.6 18191.1    0.00 18191.1 18190.5    0.68
 2020 204    99       0   22305  181931       0  181931  181899    32.3    0.00  2230.5 18190.5    0.00 18190.5 18189.8    0.72
 2020 205   100       0   22305  181927       0  181927  181893    34.9    0.00  2230.5 18190.0    0.00 18190.0 18189.2    0.76
 2020 206   101       0   22304  181925       0  181925  181887    37.6    0.00  2230.4 18189.5    0.00 18189.5 18188.7    0.81
 2020 207   102       0   22304  181922       0  181922  181881    40.5    0.00  2230.4 18188.9    0.00 18188.9 18188.1    0.85
 2020 208   103       0   22303  181919       0  181919  181876    43.6    0.00  2230.3 18188.4    0.00 18188.4 18187.5    0.89
 2020 209   104       0   22302  181914       0  181914  181868    46.0    0.00  2230.1 18187.7    0.00 18187.7 18186.7    0.94
 2020 210   105       0   22300  181909       0  181909  181860    48.4    0.00  2230.0 18186.9    0.00 18186.9 18185.9    0.99
 2020 211   106       0   22298  181904       0  181904  181853    50.8    0.00  2229.8 18186.2    0.00 18186.2 18185.2    1.03
 2020 212   107       0   22297  181899       0  181899  181845    53.3    0.00  2229.7 18185.5    0.00 18185.5 18184.4    1.08
 2020 213   108       0   22296  181894       0  181894  181839    55.9    0.00  2229.5 18184.9    0.00 18184.9 18183.7    1.13
 2020 214   109       0   22294  181891       0  181891  181832    58.6    0.00  2229.4 18184.3    0.00 18184.3 18183.1    1.17
 2020 215   110       0   22293  181887       0  181887  181826    61.3    0.00  2229.3 18183.7    0.00 18183.7 18182.4    1.22
 2020 216   111       0   22292  181884       0  181884  181820    64.1    0.00  2229.2 18183.1    0.00 18183.1 18181.8    1.27
 2020 217   112       0   22291  181880       0  181880  181814    66.9    0.00  2229.1 18182.5    0.00 18182.5 18181.2    1.32
 2020 218   113       0   22290  181877       0  181877  181808    69.7    0.00  2229.0 18182.0    0.00 18182.0 18180.6    1.37
 2020 219   114       0   22289  181875       0  181875  181802    72.5    0.00  2228.9 18181.4    0.00 18181.4 18180.0    1.42
 2020 220   115       0   22288  181871       0  181871  181796    75.3    0.00  2228.8 18180.9    0.00 18180.9 18179.4    1.47
 2020 221   116       0   22287  181868       0  181868  181790    78.1    0.00  2228.7 18180.3    0.00 18180.3 18178.8    1.52
 2020 222   117       0   22286  181865       0  181865  181784    80.9    0.00  2228.6 18179.8    0.00 18179.8 18178.2    1.57
 2020 223   118       0   22286  181863       0  181863  181779    83.9    0.00  2228.5 18179.3    0.00 18179.3 18177.7    1.62
 2020 224   119       0   22285  181860       0  181860  181773    87.0    0.00  2228.5 18178.8    0.00 18178.8 18177.1    1.67
 2020 225   120       0   22285  181858       0  181858  181768    90.1    0.00  2228.4 18178.3    0.00 18178.3 18176.6    1.72
 2020 226   121       0   22284  181856       0  181856  181763    93.3    0.00  2228.3 18177.8    0.00 18177.8 18176.0    1.77
 2020 227   122       0   22284  181854       0  181854  181758    96.5    0.00  2228.3 18177.4    0.00 18177.4 18175.5    1.83
 2020 228   123       0   22283  181853       0  181853  181753    99.8    0.00  2228.3 18176.9    0.00 18176.9 18175.1    1.88
 2020 229   124       0   22283  181851       0  181851  181748   103.1    0.00  2228.2 18176.5    0.00 18176.5 18174.6    1.93
 2020 230   125       0   22282  181850       0  181850  181743   106.3    0.00  2228.2 18176.1    0.00 18176.1 18174.1    1.98
 2020 231   126       0   22281  181847       0  181847  181738   109.1    0.00  2228.1 18175.6    0.00 18175.6 18173.5    2.03
 2020 232   127       0   22281  181844       0  181844  181732   112.1    0.00  2228.0 18175.1    0.00 18175.1 18173.0    2.08
 2020 233   128       0   22280  181842       0  181842  181727   115.2    0.00  2227.9 18174.6    0.00 18174.6 18172.4    2.14
 2020 234   129       0   22279  181840       0  181840  181722   118.3    0.00  2227.9 18174.1    0.00 18174.1 18171.9    2.19
 2020 235   130       0   22279  181839       0  181839  181717   121.5    0.00  2227.8 18173.7    0.00 18173.7 18171.5    2.24
 2020 236   131       0   22278  181837       0  181837  181713   124.7    0.00  2227.8 18173.3    0.00 18173.3 18171.0    2.29
 2020 237   132       0   22278  181836       0  181836  181708   127.9    0.00  2227.7 18172.9    0.00 18172.9 18170.5    2.35
 2020 238   133       0   22277  181833       0  181833  181702   130.7    0.00  2227.6 18172.3    0.00 18172.3 18169.9    2.40
 2020 239   134       0   22276  181830       0  181830  181697   133.6    0.00  2227.5 18171.8    0.00 18171.8 18169.4    2.45
 2020 240   135       0   22276  181828       0  181828  181692   136.7    0.00  2227.5 18171.4    0.00 18171.4 18168.9    2.50
 2020 241   136       0   22275  181826       0  181826  181686   139.7    0.00  2227.4 18170.9    0.00 18170.9 18168.3    2.56
 2020 242   137       0   22273  181821       0  181821  181679   141.6    0.00  2227.3 18170.2    0.00 18170.2 18167.6    2.62
 2020 243   138       0   22272  181816       0  181816  181673   143.3    0.00  2227.1 18169.6    0.00 18169.6 18166.9    2.67
 2020 244   139       0   22271  181811       0  181811  181666   145.1    0.00  2226.9 18168.9    0.00 18168.9 18166.2    2.73
 2020 245   140       0   22269  181805       0  181805  181659   146.4    0.00  2226.8 18168.3    0.00 18168.3 18165.5    2.79
 2020 246   141       0   22268  181800       0  181800  181652   148.0    0.00  2226.7 18167.6    0.00 18167.6 18164.8    2.85
 2020 247   142       0   22267  181796       0  181796  181646   149.8    0.00  2226.5 18167.0    0.00 18167.0 18164.1    2.90
 2020 248   143       0   22265  181791       0  181791  181639   151.6    0.00  2226.4 18166.4    0.00 18166.4 18163.5    2.95
 2020 249   144       0   22264  181786       0  181786  181633   153.5    0.00  2226.3 18165.8    0.00 18165.8 18162.8    3.00
 2020 250   145       0   22263  181782       0  181782  181626   155.2    0.00  2226.1 18165.2    0.00 18165.2 18162.1    3.06
 2020 251   146       0   22261  181776       0  181776  181619   156.9    0.00  2226.0 18164.5    0.00 18164.5 18161.4    3.11
 2020 252   147       0   22260  181770       0  181770  181612   158.1    0.00  2225.8 18163.8    0.00 18163.8 18160.6    3.16
 2020 253   148       0   22259  181764       0  181764  181605   159.4    0.00  2225.7 18163.1    0.00 18163.1 18159.9    3.21
 2020 254   149       0   22258  181758       0  181758  181598   160.1    0.00  2225.6 18162.4    0.00 18162.4 18159.2    3.28
 2020 255   150       0   22257  181754       0  181754  181592   161.0    0.00  2225.5 18161.9    0.00 18161.9 18158.6    3.34
 2020 256   151       0   22256  181750       0  181750  181588   162.2    0.00  2225.4 18161.5    0.00 18161.5 18158.1    3.40
 2020 257   152       0   22256  181747       0  181747  181583   163.5    0.00  2225.4 18161.1    0.00 18161.1 18157.6    3.46
 2020 258   153       0   22255  181743       0  181743  181578   164.4    0.00  2225.3 18160.6    0.00 18160.6 18157.1    3.52
 2020 259   154       0   22254  181737       0  181737  181572   164.7    0.00  2225.2 18160.0    0.00 18160.0 18156.4    3.58
 2020 260   155       0   22253  181730       0  181730  181565   164.8    0.00  2225.1 18159.3    0.00 18159.3 18155.6    3.64
 2020 261   156       0   22252  181721       0  181721  181557   164.1    0.00  2225.0 18158.5    0.00 18158.5 18154.8    3.70
 2020 262   157       0   22250  181713       0  181713  181550   163.3    0.00  2224.8 18157.8    0.00 18157.8 18154.0    3.76
 2020 263   158       0   22249  181705       0  181705  181542   162.6    0.00  2224.7 18157.0    0.00 18157.0 18153.2    3.81
 2020 264   159       0   22248  181697       0  181697  181535   162.0    0.00  2224.6 18156.3    0.00 18156.3 18152.4    3.85
 2020 265   160       0   22247  181689       0  181689  181527   161.5    0.00  2224.5 18155.5    0.00 18155.5 18151.6    3.89
 2020 266   161       0   22246  181681       0  181681  181519   161.3    0.00  2224.3 18154.7    0.00 18154.7 18150.8    3.93
 2020 267   162       0   22244  181671       0  181671  181511   160.2    0.00  2224.2 18153.9    0.00 18153.9 18149.9    3.98
 2020 268   163       0   22243  181662       0  181662  181503   158.8    0.00  2224.1 18153.0    0.00 18153.0 18149.0    4.02
 2020 269   164       0   22242  181652       0  181652  181494   157.2    0.00  2223.9 18152.2    0.00 18152.2 18148.1    4.06
 2020 270   165       0   22241  181641       0  181641  181485   155.7    0.00  2223.8 18151.2    0.00 18151.2 18147.1    4.09
 2020 271   166       0   22239  181630       0  181630  181476   154.1    0.00  2223.7 18150.3    0.00 18150.3 18146.2    4.11
 2020 272   167       0   22238  181617       0  181617  181467   150.0    0.00  2223.5 18149.3    0.00 18149.3 18145.2    4.07
 2020 273   168       0   22236  181605       0  181605  181459   146.4    0.00  2223.4 18148.3    0.00 18148.3 18144.3    4.03
 2020 274   169       0   22235  181594       0  181594  181451   143.2    0.00  2223.3 18147.4    0.00 18147.4 18143.4    3.99
 2020 275   170       0   22234  181583       0  181583  181443   140.4    0.00  2223.1 18146.6    0.00 18146.6 18142.7    3.95
 2020 276   171       0   22233  181574       0  181574  181436   138.0    0.00  2223.0 18145.8    0.00 18145.8 18141.9    3.91
 2020 277   172       0   22232  181565       0  181565  181429   135.6    0.00  2222.9 18145.1    0.00 18145.1 18141.2    3.87

*DSSAT Cropping System Model Ver. 4.7.5.035 -develop  JUN 14, 2021 09:08:55

*RUN   3        : 20 IRRIG, ASCE SHORT..... MZCER047 KSRT2001    3
 MODEL          : MZCER047 - Maize
 EXPERIMENT     : KSRT2001 SB ARM 2020 KS, IRRIGATED
 DATA PATH      :
 TREATMENT  3   : 20 IRRIG, ASCE SHORT..... MZCER047
  
@YEAR DOY   DAS    OMAC    SCDD    SOCD    SC0D    SCTD   SOMCT    LCTD    ONAC    SNDD    SOND    SN0D    SNTD   SOMNT    LNTD
 2020 105     0       0   22422  182825       0  182825  182825     0.0    0.00  2242.2 18282.5    0.00 18282.5 18282.5    0.00
 2020 106     1       0   22421  182819       0  182819  182819     0.0    0.00  2242.1 18281.9    0.00 18281.9 18281.9    0.00
 2020 107     2       0   22421  182814       0  182814  182814     0.0    0.00  2242.1 18281.4    0.00 18281.4 18281.4    0.00
 2020 108     3       0   22420  182808       0  182808  182808     0.0    0.00  2242.0 18280.8    0.00 18280.8 18280.8    0.00
 2020 109     4       0   22419  182803       0  182803  182803     0.0    0.00  2241.9 18280.3    0.00 18280.3 18280.3    0.00
 2020 110     5       0   22419  182798       0  182798  182798     0.0    0.00  2241.9 18279.8    0.00 18279.8 18279.8    0.00
 2020 111     6       0   22418  182792       0  182792  182792     0.0    0.00  2241.8 18279.2    0.00 18279.2 18279.2    0.00
 2020 112     7       0   22417  182786       0  182786  182786     0.0    0.00  2241.7 18278.6    0.00 18278.6 18278.6    0.00
 2020 113     8       0   22416  182779       0  182779  182779     0.0    0.00  2241.6 18277.9    0.00 18277.9 18277.9    0.00
 2020 114     9       0   22415  182772       0  182772  182772     0.0    0.00  2241.5 18277.2    0.00 18277.2 18277.2    0.00
 2020 115    10       0   22414  182765       0  182765  182765     0.0    0.00  2241.4 18276.5    0.00 18276.5 18276.5    0.00
 2020 116    11       0   22414  182758       0  182758  182758     0.0    0.00  2241.4 18275.8    0.00 18275.8 18275.8    0.00
 2020 117    12       0   22413  182751       0  182751  182751     0.0    0.00  2241.3 18275.1    0.00 18275.1 18275.1    0.00
 2020 118    13       0   22412  182744       0  182744  182744     0.0    0.00  2241.2 18274.4    0.00 18274.4 18274.4    0.00
 2020 119    14       0   22411  182736       0  182736  182736     0.0    0.00  2241.1 18273.6    0.00 18273.6 18273.6    0.00
 2020 120    15       0   22410  182728       0  182728  182728     0.0    0.00  2241.0 18272.8    0.00 18272.8 18272.8    0.00
 2020 121    16       0   22408  182719       0  182719  182719     0.0    0.00  2240.8 18271.9    0.00 18271.9 18271.9    0.00
 2020 122    17       0   22407  182709       0  182709  182709     0.0    0.00  2240.7 18270.9    0.00 18270.9 18270.9    0.00
 2020 123    18       0   22406  182699       0  182699  182699     0.0    0.00  2240.6 18269.9    0.00 18269.9 18269.9    0.00
 2020 124    19       0   22404  182689       0  182689  182689     0.0    0.00  2240.4 18268.9    0.00 18268.9 18268.9    0.00
 2020 125    20       0   22403  182680       0  182680  182680     0.0    0.00  2240.3 18268.0    0.00 18268.0 18268.0    0.00
 2020 126    21       0   22402  182670       0  182670  182670     0.0    0.00  2240.2 18267.0    0.00 18267.0 18267.0    0.00
 2020 127    22       0   22400  182660       0  182660  182660     0.0    0.00  2240.0 18266.0    0.00 18266.0 18266.0    0.00
 2020 128    23       0   22399  182651       0  182651  182651     0.0    0.00  2239.9 18265.1    0.00 18265.1 18265.1    0.00
 2020 129    24       0   22398  182642       0  182642  182642     0.0    0.00  2239.8 18264.2    0.00 18264.2 18264.2    0.00
 2020 130    25       0   22397  182634       0  182634  182634     0.0    0.00  2239.7 18263.4    0.00 18263.4 18263.4    0.00
 2020 131    26       0   22396  182626       0  182626  182626     0.0    0.00  2239.6 18262.6    0.00 18262.6 18262.6    0.00
 2020 132    27       0   22395  182619       0  182619  182619     0.0    0.00  2239.5 18261.9    0.00 18261.9 18261.9    0.00
 2020 133    28       0   22394  182613       0  182613  182613     0.0    0.00  2239.4 18261.3    0.00 18261.3 18261.3    0.00
 2020 134    29       0   22393  182608       0  182608  182608     0.0    0.00  2239.3 18260.8    0.00 18260.8 18260.8    0.00
 2020 135    30       0   22393  182603       0  182603  182603     0.0    0.00  2239.3 18260.3    0.00 18260.3 18260.3    0.00
 2020 136    31       0   22392  182598       0  182598  182598     0.0    0.00  2239.2 18259.8    0.00 18259.8 18259.8    0.00
 2020 137    32       0   22392  182592       0  182592  182592     0.0    0.00  2239.2 18259.2    0.00 18259.2 18259.2    0.00
 2020 138    33       0   22391  182585       0  182585  182585     0.0    0.00  2239.1 18258.5    0.00 18258.5 18258.5    0.00
 2020 139    34       0   22390  182577       0  182577  182577     0.0    0.00  2239.0 18257.7    0.00 18257.7 18257.7    0.00
 2020 140    35       0   22388  182568       0  182568  182568     0.0    0.00  2238.8 18256.8    0.00 18256.8 18256.8    0.00
 2020 141    36       0   22387  182558       0  182558  182558     0.0    0.00  2238.7 18255.8    0.00 18255.8 18255.8    0.00
 2020 142    37       0   22386  182549       0  182549  182549     0.0    0.00  2238.6 18254.9    0.00 18254.9 18254.9    0.00
 2020 143    38       0   22385  182540       0  182540  182540     0.0    0.00  2238.5 18254.0    0.00 18254.0 18254.0    0.00
 2020 144    39       0   22383  182531       0  182531  182531     0.0    0.00  2238.3 18253.1    0.00 18253.1 18253.1    0.00
 2020 145    40       0   22382  182521       0  182521  182521     0.0    0.00  2238.2 18252.1    0.00 18252.1 18252.1    0.00
 2020 146    41       0   22381  182512       0  182512  182512     0.0    0.00  2238.1 18251.1    0.00 18251.1 18251.1    0.00
 2020 147    42       0   22380  182502       0  182502  182502     0.0    0.00  2238.0 18250.2    0.00 18250.2 18250.2    0.00
 2020 148    43       0   22378  182494       0  182494  182494     0.0    0.00  2237.8 18249.4    0.00 18249.4 18249.4    0.00
 2020 149    44       0   22377  182485       0  182485  182485     0.0    0.00  2237.7 18248.5    0.00 18248.5 18248.5    0.00
 2020 150    45       0   22376  182476       0  182476  182476     0.0    0.00  2237.6 18247.6    0.00 18247.6 18247.6    0.00
 2020 151    46       0   22375  182468       0  182468  182468     0.0    0.00  2237.5 18246.8    0.00 18246.8 18246.8    0.00
 2020 152    47       0   22374  182458       0  182458  182458     0.0    0.00  2237.4 18245.8    0.00 18245.8 18245.8    0.00
 2020 153    48       0   22372  182447       0  182447  182447     0.0    0.00  2237.2 18244.7    0.00 18244.7 18244.7    0.00
 2020 154    49       0   22370  182435       0  182435  182435     0.0    0.00  2237.0 18243.5    0.00 18243.5 18243.5    0.00
 2020 155    50       0   22369  182423       0  182423  182423     0.0    0.00  2236.9 18242.3    0.00 18242.3 18242.3    0.00
 2020 156    51       0   22367  182410       0  182410  182410     0.0    0.00  2236.7 18241.0    0.00 18241.0 18241.0    0.00
 2020 157    52       0   22365  182397       0  182397  182397     0.0    0.00  2236.5 18239.7    0.00 18239.7 18239.7    0.00
 2020 158    53       0   22363  182384       0  182384  182384     0.0    0.00  2236.3 18238.4    0.00 18238.4 18238.4    0.00
 2020 159    54       0   22361  182371       0  182371  182371     0.0    0.00  2236.1 18237.1    0.00 18237.1 18237.1    0.00
 2020 160    55       0   22360  182358       0  182358  182358     0.0    0.00  2236.0 18235.8    0.00 18235.8 18235.8    0.00
 2020 161    56       0   22358  182344       0  182344  182344     0.0    0.00  2235.8 18234.4    0.00 18234.4 18234.4    0.00
 2020 162    57       0   22356  182332       0  182332  182332     0.0    0.00  2235.6 18233.2    0.00 18233.2 18233.2    0.00
 2020 163    58       0   22354  182320       0  182320  182320     0.0    0.00  2235.4 18232.0    0.00 18232.0 18232.0    0.00
 2020 164    59       0   22353  182309       0  182309  182309     0.1    0.00  2235.3 18230.9    0.00 18230.9 18230.9    0.00
 2020 165    60       0   22351  182298       0  182298  182298     0.2    0.00  2235.1 18229.8    0.00 18229.8 18229.8    0.01
 2020 166    61       0   22350  182287       0  182287  182286     0.3    0.00  2235.0 18228.7    0.00 18228.7 18228.6    0.01
 2020 167    62       0   22348  182275       0  182275  182275     0.4    0.00  2234.8 18227.5    0.00 18227.5 18227.4    0.01
 2020 168    63       0   22346  182262       0  182262  182262     0.6    0.00  2234.6 18226.2    0.00 18226.2 18226.2    0.02
 2020 169    64       0   22345  182251       0  182251  182250     0.8    0.00  2234.5 18225.0    0.00 18225.0 18225.0    0.02
 2020 170    65       0   22343  182239       0  182239  182238     1.0    0.00  2234.3 18223.9    0.00 18223.9 18223.8    0.03
 2020 171    66       0   22341  182229       0  182229  182227     1.3    0.00  2234.1 18222.8    0.00 18222.8 18222.7    0.04
 2020 172    67       0   22339  182219       0  182219  182217     1.7    0.00  2233.9 18221.7    0.00 18221.7 18221.7    0.06
 2020 173    68       0   22338  182209       0  182209  182207     2.2    0.00  2233.8 18220.8    0.00 18220.8 18220.7    0.07
 2020 174    69       0   22337  182200       0  182200  182197     2.7    0.00  2233.7 18219.8    0.00 18219.8 18219.7    0.09
 2020 175    70       0   22335  182191       0  182191  182188     3.3    0.00  2233.5 18218.9    0.00 18218.9 18218.8    0.10
 2020 176    71       0   22334  182182       0  182182  182178     4.0    0.00  2233.4 18217.9    0.00 18217.9 18217.8    0.13
 2020 177    72       0   22332  182173       0  182173  182168     4.9    0.00  2233.2 18216.9    0.00 18216.9 18216.8    0.15
 2020 178    73       0   22331  182164       0  182164  182158     5.8    0.00  2233.1 18216.0    0.00 18216.0 18215.8    0.18
 2020 179    74       0   22329  182155       0  182155  182148     6.9    0.00  2232.9 18215.1    0.00 18215.1 18214.8    0.22
 2020 180    75       0   22328  182147       0  182147  182139     8.1    0.00  2232.8 18214.2    0.00 18214.2 18213.9    0.25
 2020 181    76       0   22327  182139       0  182139  182130     9.5    0.00  2232.7 18213.3    0.00 18213.3 18213.0    0.29
 2020 182    77       0   22326  182131       0  182131  182120    10.8    0.00  2232.6 18212.3    0.00 18212.3 18212.0    0.33
 2020 183    78       0   22325  182123       0  182123  182110    12.3    0.00  2232.5 18211.4    0.00 18211.4 18211.0    0.37
 2020 184    79       0   22324  182116       0  182116  182102    14.1    0.00  2232.4 18210.6    0.00 18210.6 18210.1    0.41
 2020 185    80       0   22323  182110       0  182110  182093    16.2    0.00  2232.3 18209.8    0.00 18209.8 18209.3    0.45
 2020 186    81       0   22323  182104       0  182104  182085    18.3    0.00  2232.3 18209.0    0.00 18209.0 18208.5    0.50
 2020 187    82       0   22322  182099       0  182099  182078    20.6    0.00  2232.2 18208.3    0.00 18208.3 18207.8    0.54
 2020 188    83       0   22322  182094       0  182094  182071    23.0    0.00  2232.2 18207.6    0.00 18207.6 18207.1    0.59
 2020 189    84       0   22321  182089       0  182089  182064    25.4    0.00  2232.1 18207.0    0.00 18207.0 18206.4    0.63
 2020 190    85       0   22321  182085       0  182085  182057    27.8    0.00  2232.1 18206.4    0.00 18206.4 18205.7    0.68
 2020 191    86       0   22320  182081       0  182081  182051    30.3    0.00  2232.0 18205.8    0.00 18205.8 18205.1    0.73
 2020 192    87       0   22320  182077       0  182077  182044    32.9    0.00  2232.0 18205.2    0.00 18205.2 18204.4    0.78
 2020 193    88       0   22319  182073       0  182073  182038    35.5    0.00  2231.9 18204.6    0.00 18204.6 18203.8    0.83
 2020 194    89       0   22319  182069       0  182069  182031    38.1    0.00  2231.9 18204.0    0.00 18204.0 18203.1    0.88
 2020 195    90       0   22319  182065       0  182065  182025    40.7    0.00  2231.8 18203.4    0.00 18203.4 18202.4    0.93
 2020 196    91       0   22318  182062       0  182062  182018    43.3    0.00  2231.8 18202.8    0.00 18202.8 18201.8    0.98
 2020 197    92       0   22318  182058       0  182058  182012    45.9    0.00  2231.8 18202.2    0.00 18202.2 18201.2    1.03
 2020 198    93       0   22317  182054       0  182054  182006    48.4    0.00  2231.7 18201.6    0.00 18201.6 18200.6    1.08
 2020 199    94       0   22317  182051       0  182051  182000    51.0    0.00  2231.7 18201.1    0.00 18201.1 18200.0    1.13
 2020 200    95       0   22316  182048       0  182048  181994    53.5    0.00  2231.6 18200.6    0.00 18200.6 18199.4    1.18
 2020 201    96       0   22316  182043       0  182043  181988    55.6    0.00  2231.6 18200.0    0.00 18200.0 18198.7    1.23
 2020 202    97       0   22315  182039       0  182039  181981    58.0    0.00  2231.5 18199.4    0.00 18199.4 18198.1    1.28
 2020 203    98       0   22315  182036       0  182036  181975    60.4    0.00  2231.5 18198.8    0.00 18198.8 18197.5    1.33
 2020 204    99       0   22315  182032       0  182032  181969    62.9    0.00  2231.4 18198.3    0.00 18198.3 18196.9    1.38
 2020 205   100       0   22314  182029       0  182029  181963    65.4    0.00  2231.4 18197.7    0.00 18197.7 18196.3    1.43
 2020 206   101       0   22314  182026       0  182026  181958    68.0    0.00  2231.4 18197.2    0.00 18197.2 18195.7    1.48
 2020 207   102       0   22313  182022       0  182022  181952    70.6    0.00  2231.3 18196.7    0.00 18196.7 18195.1    1.53
 2020 208   103       0   22313  182019       0  182019  181946    73.2    0.00  2231.3 18196.2    0.00 18196.2 18194.6    1.58
 2020 209   104       0   22311  182013       0  182013  181938    74.3    0.00  2231.1 18195.4    0.00 18195.4 18193.8    1.64
 2020 210   105       0   22310  182006       0  182006  181930    75.2    0.00  2230.9 18194.6    0.00 18194.6 18192.9    1.70
 2020 211   106       0   22308  181999       0  181999  181923    76.3    0.00  2230.8 18193.9    0.00 18193.9 18192.2    1.75
 2020 212   107       0   22307  181993       0  181993  181916    77.4    0.00  2230.6 18193.2    0.00 18193.2 18191.4    1.80
 2020 213   108       0   22306  181987       0  181987  181909    78.7    0.00  2230.5 18192.6    0.00 18192.6 18190.7    1.85
 2020 214   109       0   22305  181982       0  181982  181902    80.3    0.00  2230.4 18191.9    0.00 18191.9 18190.0    1.90
 2020 215   110       0   22303  181977       0  181977  181895    82.0    0.00  2230.2 18191.3    0.00 18191.3 18189.3    1.96
 2020 216   111       0   22302  181972       0  181972  181889    83.7    0.00  2230.1 18190.7    0.00 18190.7 18188.7    2.01
 2020 217   112       0   22301  181968       0  181968  181882    85.4    0.00  2230.0 18190.1    0.00 18190.1 18188.0    2.06
 2020 218   113       0   22300  181963       0  181963  181876    87.1    0.00  2229.9 18189.5    0.00 18189.5 18187.4    2.12
 2020 219   114       0   22299  181959       0  181959  181870    88.9    0.00  2229.8 18188.9    0.00 18188.9 18186.7    2.17
 2020 220   115       0   22298  181954       0  181954  181863    90.6    0.00  2229.7 18188.3    0.00 18188.3 18186.1    2.22
 2020 221   116       0   22297  181949       0  181949  181857    92.3    0.00  2229.6 18187.7    0.00 18187.7 18185.4    2.27
 2020 222   117       0   22296  181944       0  181944  181850    94.1    0.00  2229.4 18187.1    0.00 18187.1 18184.7    2.33
 2020 223   118       0   22295  181940       0  181940  181844    96.0    0.00  2229.3 18186.5    0.00 18186.5 18184.1    2.38
 2020 224   119       0   22294  181935       0  181935  181837    98.0    0.00  2229.3 18185.9    0.00 18185.9 18183.4    2.44
 2020 225   120       0   22293  181931       0  181931  181831   100.1    0.00  2229.2 18185.3    0.00 18185.3 18182.8    2.50
 2020 226   121       0   22292  181927       0  181927  181825   102.2    0.00  2229.1 18184.7    0.00 18184.7 18182.2    2.56
 2020 227   122       0   22292  181924       0  181924  181819   104.5    0.00  2229.1 18184.2    0.00 18184.2 18181.6    2.62
 2020 228   123       0   22291  181921       0  181921  181814   106.8    0.00  2229.0 18183.7    0.00 18183.7 18181.1    2.68
 2020 229   124       0   22291  181918       0  181918  181809   109.1    0.00  2228.9 18183.3    0.00 18183.3 18180.5    2.74
 2020 230   125       0   22290  181915       0  181915  181803   111.4    0.00  2228.9 18182.8    0.00 18182.8 18180.0    2.80
 2020 231   126       0   22289  181910       0  181910  181797   113.1    0.00  2228.8 18182.2    0.00 18182.2 18179.3    2.85
 2020 232   127       0   22288  181906       0  181906  181791   115.0    0.00  2228.7 18181.6    0.00 18181.6 18178.7    2.91
 2020 233   128       0   22288  181902       0  181902  181785   117.0    0.00  2228.6 18181.1    0.00 18181.1 18178.1    2.96
 2020 234   129       0   22287  181899       0  181899  181780   119.1    0.00  2228.6 18180.6    0.00 18180.6 18177.6    3.02
 2020 235   130       0   22286  181895       0  181895  181774   121.3    0.00  2228.5 18180.1    0.00 18180.1 18177.0    3.08
 2020 236   131       0   22286  181892       0  181892  181769   123.5    0.00  2228.4 18179.6    0.00 18179.6 18176.5    3.14
 2020 237   132       0   22285  181889       0  181889  181764   125.8    0.00  2228.4 18179.2    0.00 18179.2 18176.0    3.20
 2020 238   133       0   22284  181885       0  181885  181758   127.5    0.00  2228.3 18178.6    0.00 18178.6 18175.3    3.25
 2020 239   134       0   22284  181881       0  181881  181751   129.4    0.00  2228.2 18178.0    0.00 18178.0 18174.7    3.31
 2020 240   135       0   22283  181877       0  181877  181745   131.3    0.00  2228.1 18177.5    0.00 18177.5 18174.1    3.36
 2020 241   136       0   22282  181873       0  181873  181740   133.4    0.00  2228.0 18176.9    0.00 18176.9 18173.5    3.42
 2020 242   137       0   22281  181866       0  181866  181732   133.7    0.00  2227.9 18176.2    0.00 18176.2 18172.7    3.46
 2020 243   138       0   22279  181859       0  181859  181725   133.9    0.00  2227.7 18175.5    0.00 18175.5 18172.0    3.50
 2020 244   139       0   22278  181852       0  181852  181717   134.2    0.00  2227.6 18174.8    0.00 18174.8 18171.2    3.54
 2020 245   140       0   22276  181844       0  181844  181710   133.9    0.00  2227.4 18174.0    0.00 18174.0 18170.4    3.58
 2020 246   141       0   22275  181837       0  181837  181703   133.7    0.00  2227.3 18173.3    0.00 18173.3 18169.7    3.61
 2020 247   142       0   22274  181830       0  181830  181696   133.9    0.00  2227.2 18172.6    0.00 18172.6 18169.0    3.64
 2020 248   143       0   22273  181824       0  181824  181690   134.2    0.00  2227.0 18172.0    0.00 18172.0 18168.3    3.68
 2020 249   144       0   22272  181818       0  181818  181683   134.7    0.00  2226.9 18171.3    0.00 18171.3 18167.6    3.71
 2020 250   145       0   22270  181811       0  181811  181676   135.2    0.00  2226.8 18170.6    0.00 18170.6 18166.9    3.75
 2020 251   146       0   22269  181804       0  181804  181669   135.7    0.00  2226.6 18169.9    0.00 18169.9 18166.1    3.78
 2020 252   147       0   22268  181797       0  181797  181661   135.7    0.00  2226.5 18169.1    0.00 18169.1 18165.3    3.80
 2020 253   148       0   22266  181790       0  181790  181654   135.9    0.00  2226.4 18168.4    0.00 18168.4 18164.6    3.83
 2020 254   149       0   22265  181784       0  181784  181647   136.4    0.00  2226.2 18167.8    0.00 18167.8 18163.9    3.87
 2020 255   150       0   22264  181779       0  181779  181642   137.1    0.00  2226.2 18167.2    0.00 18167.2 18163.3    3.90
 2020 256   151       0   22264  181775       0  181775  181637   137.9    0.00  2226.1 18166.8    0.00 18166.8 18162.8    3.95
 2020 257   152       0   22263  181772       0  181772  181633   138.8    0.00  2226.0 18166.4    0.00 18166.4 18162.4    3.99
 2020 258   153       0   22262  181767       0  181767  181628   139.5    0.00  2226.0 18165.9    0.00 18165.9 18161.8    4.03
 2020 259   154       0   22261  181761       0  181761  181621   139.8    0.00  2225.9 18165.3    0.00 18165.3 18161.2    4.06
 2020 260   155       0   22260  181754       0  181754  181614   139.8    0.00  2225.7 18164.5    0.00 18164.5 18160.4    4.08
 2020 261   156       0   22259  181746       0  181746  181607   139.3    0.00  2225.6 18163.7    0.00 18163.7 18159.6    4.10
 2020 262   157       0   22258  181738       0  181738  181599   139.0    0.00  2225.5 18163.0    0.00 18163.0 18158.9    4.12
 2020 263   158       0   22257  181731       0  181731  181592   138.8    0.00  2225.4 18162.2    0.00 18162.2 18158.1    4.13
 2020 264   159       0   22256  181723       0  181723  181584   138.8    0.00  2225.3 18161.5    0.00 18161.5 18157.3    4.15
 2020 265   160       0   22255  181716       0  181716  181577   138.8    0.00  2225.1 18160.7    0.00 18160.7 18156.5    4.17
 2020 266   161       0   22253  181708       0  181708  181569   138.7    0.00  2225.0 18159.9    0.00 18159.9 18155.7    4.18
 2020 267   162       0   22252  181700       0  181700  181561   138.4    0.00  2224.9 18159.1    0.00 18159.1 18154.9    4.19
 2020 268   163       0   22251  181692       0  181692  181553   138.2    0.00  2224.8 18158.3    0.00 18158.3 18154.1    4.20
 2020 269   164       0   22250  181683       0  181683  181545   138.1    0.00  2224.6 18157.4    0.00 18157.4 18153.2    4.21
 2020 270   165       0   22248  181674       0  181674  181537   137.9    0.00  2224.5 18156.6    0.00 18156.6 18152.4    4.22
 2020 271   166       0   22247  181666       0  181666  181528   137.8    0.00  2224.3 18155.7    0.00 18155.7 18151.5    4.22
 2020 272   167       0   22246  181655       0  181655  181520   135.6    0.00  2224.2 18154.8    0.00 18154.8 18150.6    4.18
 2020 273   168       0   22245  181645       0  181645  181512   133.8    0.00  2224.1 18153.9    0.00 18153.9 18149.8    4.13
 2020 274   169       0   22243  181636       0  181636  181504   132.2    0.00  2224.0 18153.1    0.00 18153.1 18149.0    4.09
 2020 275   170       0   22242  181628       0  181628  181497   130.8    0.00  2223.9 18152.4    0.00 18152.4 18148.3    4.06
 2020 276   171       0   22242  181620       0  181620  181491   129.6    0.00  2223.8 18151.7    0.00 18151.7 18147.7    4.03
 2020 277   172       0   22241  181613       0  181613  181484   128.5    0.00  2223.7 18151.0    0.00 18151.0 18147.0    4.00
