*Soil Organic Matter daily output file

*DSSAT Cropping System Model Ver. 4.7.5.035 -develop  JUN 11, 2021 16:21:59

*RUN   1        : 20 IRRIG, PETPEN NO KCB.. MZCER047 KSRT2001    1
 MODEL          : MZCER047 - Maize
 EXPERIMENT     : KSRT2001 SB ARM 2020 KS, IRRIGATED & NON-IRRIGATED
 DATA PATH      :
 TREATMENT  1   : 20 IRRIG, PETPEN NO KCB.. MZCER047
  
@YEAR DOY   DAS    OMAC    SCDD    SOCD    SC0D    SCTD   SOMCT    LCTD    ONAC    SNDD    SOND    SN0D    SNTD   SOMNT    LNTD
 2020 105     0       0   22422  182825       0  182825  182825     0.0    0.00  2242.2 18282.5    0.00 18282.5 18282.5    0.00
 2020 106     1       0   22421  182819       0  182819  182819     0.0    0.00  2242.1 18281.9    0.00 18281.9 18281.9    0.00
 2020 107     2       0   22421  182814       0  182814  182814     0.0    0.00  2242.1 18281.4    0.00 18281.4 18281.4    0.00
 2020 108     3       0   22420  182808       0  182808  182808     0.0    0.00  2242.0 18280.8    0.00 18280.8 18280.8    0.00
 2020 109     4       0   22419  182803       0  182803  182803     0.0    0.00  2241.9 18280.3    0.00 18280.3 18280.3    0.00
 2020 110     5       0   22419  182798       0  182798  182798     0.0    0.00  2241.9 18279.8    0.00 18279.8 18279.8    0.00
 2020 111     6       0   22418  182792       0  182792  182792     0.0    0.00  2241.8 18279.2    0.00 18279.2 18279.2    0.00
 2020 112     7       0   22417  182786       0  182786  182786     0.0    0.00  2241.7 18278.6    0.00 18278.6 18278.6    0.00
 2020 113     8       0   22416  182779       0  182779  182779     0.0    0.00  2241.6 18277.9    0.00 18277.9 18277.9    0.00
 2020 114     9       0   22415  182772       0  182772  182772     0.0    0.00  2241.5 18277.2    0.00 18277.2 18277.2    0.00
 2020 115    10       0   22414  182765       0  182765  182765     0.0    0.00  2241.4 18276.5    0.00 18276.5 18276.5    0.00
 2020 116    11       0   22414  182758       0  182758  182758     0.0    0.00  2241.4 18275.8    0.00 18275.8 18275.8    0.00
 2020 117    12       0   22413  182751       0  182751  182751     0.0    0.00  2241.3 18275.1    0.00 18275.1 18275.1    0.00
 2020 118    13       0   22412  182744       0  182744  182744     0.0    0.00  2241.2 18274.4    0.00 18274.4 18274.4    0.00
 2020 119    14       0   22411  182736       0  182736  182736     0.0    0.00  2241.1 18273.6    0.00 18273.6 18273.6    0.00
 2020 120    15       0   22410  182728       0  182728  182728     0.0    0.00  2241.0 18272.8    0.00 18272.8 18272.8    0.00
 2020 121    16       0   22408  182719       0  182719  182719     0.0    0.00  2240.8 18271.9    0.00 18271.9 18271.9    0.00
 2020 122    17       0   22407  182709       0  182709  182709     0.0    0.00  2240.7 18270.9    0.00 18270.9 18270.9    0.00
 2020 123    18       0   22406  182699       0  182699  182699     0.0    0.00  2240.6 18269.9    0.00 18269.9 18269.9    0.00
 2020 124    19       0   22404  182689       0  182689  182689     0.0    0.00  2240.4 18268.9    0.00 18268.9 18268.9    0.00
 2020 125    20       0   22403  182680       0  182680  182680     0.0    0.00  2240.3 18268.0    0.00 18268.0 18268.0    0.00
 2020 126    21       0   22402  182670       0  182670  182670     0.0    0.00  2240.2 18267.0    0.00 18267.0 18267.0    0.00
 2020 127    22       0   22400  182660       0  182660  182660     0.0    0.00  2240.0 18266.0    0.00 18266.0 18266.0    0.00
 2020 128    23       0   22399  182651       0  182651  182651     0.0    0.00  2239.9 18265.1    0.00 18265.1 18265.1    0.00
 2020 129    24       0   22398  182642       0  182642  182642     0.0    0.00  2239.8 18264.2    0.00 18264.2 18264.2    0.00
 2020 130    25       0   22397  182634       0  182634  182634     0.0    0.00  2239.7 18263.4    0.00 18263.4 18263.4    0.00
 2020 131    26       0   22396  182626       0  182626  182626     0.0    0.00  2239.6 18262.6    0.00 18262.6 18262.6    0.00
 2020 132    27       0   22395  182619       0  182619  182619     0.0    0.00  2239.5 18261.9    0.00 18261.9 18261.9    0.00
 2020 133    28       0   22394  182613       0  182613  182613     0.0    0.00  2239.4 18261.3    0.00 18261.3 18261.3    0.00
 2020 134    29       0   22393  182608       0  182608  182608     0.0    0.00  2239.3 18260.8    0.00 18260.8 18260.8    0.00
 2020 135    30       0   22393  182603       0  182603  182603     0.0    0.00  2239.3 18260.3    0.00 18260.3 18260.3    0.00
 2020 136    31       0   22392  182598       0  182598  182598     0.0    0.00  2239.2 18259.8    0.00 18259.8 18259.8    0.00
 2020 137    32       0   22392  182592       0  182592  182592     0.0    0.00  2239.2 18259.2    0.00 18259.2 18259.2    0.00
 2020 138    33       0   22391  182585       0  182585  182585     0.0    0.00  2239.1 18258.5    0.00 18258.5 18258.5    0.00
 2020 139    34       0   22390  182577       0  182577  182577     0.0    0.00  2239.0 18257.7    0.00 18257.7 18257.7    0.00
 2020 140    35       0   22388  182568       0  182568  182568     0.0    0.00  2238.8 18256.8    0.00 18256.8 18256.8    0.00
 2020 141    36       0   22387  182558       0  182558  182558     0.0    0.00  2238.7 18255.8    0.00 18255.8 18255.8    0.00
 2020 142    37       0   22386  182549       0  182549  182549     0.0    0.00  2238.6 18254.9    0.00 18254.9 18254.9    0.00
 2020 143    38       0   22385  182540       0  182540  182540     0.0    0.00  2238.5 18254.0    0.00 18254.0 18254.0    0.00
 2020 144    39       0   22383  182531       0  182531  182531     0.0    0.00  2238.3 18253.1    0.00 18253.1 18253.1    0.00
 2020 145    40       0   22382  182521       0  182521  182521     0.0    0.00  2238.2 18252.1    0.00 18252.1 18252.1    0.00
 2020 146    41       0   22381  182512       0  182512  182512     0.0    0.00  2238.1 18251.1    0.00 18251.1 18251.1    0.00
 2020 147    42       0   22380  182502       0  182502  182502     0.0    0.00  2238.0 18250.2    0.00 18250.2 18250.2    0.00
 2020 148    43       0   22378  182494       0  182494  182494     0.0    0.00  2237.8 18249.4    0.00 18249.4 18249.4    0.00
 2020 149    44       0   22377  182485       0  182485  182485     0.0    0.00  2237.7 18248.5    0.00 18248.5 18248.5    0.00
 2020 150    45       0   22376  182476       0  182476  182476     0.0    0.00  2237.6 18247.6    0.00 18247.6 18247.6    0.00
 2020 151    46       0   22375  182468       0  182468  182468     0.0    0.00  2237.5 18246.8    0.00 18246.8 18246.8    0.00
 2020 152    47       0   22374  182458       0  182458  182458     0.0    0.00  2237.4 18245.8    0.00 18245.8 18245.8    0.00
 2020 153    48       0   22372  182447       0  182447  182447     0.0    0.00  2237.2 18244.7    0.00 18244.7 18244.7    0.00
 2020 154    49       0   22370  182435       0  182435  182435     0.0    0.00  2237.0 18243.5    0.00 18243.5 18243.5    0.00
 2020 155    50       0   22369  182423       0  182423  182423     0.0    0.00  2236.9 18242.3    0.00 18242.3 18242.3    0.00
 2020 156    51       0   22367  182410       0  182410  182410     0.0    0.00  2236.7 18241.0    0.00 18241.0 18241.0    0.00
 2020 157    52       0   22365  182398       0  182398  182398     0.0    0.00  2236.5 18239.8    0.00 18239.8 18239.8    0.00
 2020 158    53       0   22363  182384       0  182384  182384     0.0    0.00  2236.3 18238.4    0.00 18238.4 18238.4    0.00
 2020 159    54       0   22361  182371       0  182371  182371     0.0    0.00  2236.1 18237.1    0.00 18237.1 18237.1    0.00
 2020 160    55       0   22360  182358       0  182358  182358     0.0    0.00  2236.0 18235.8    0.00 18235.8 18235.8    0.00
 2020 161    56       0   22358  182345       0  182345  182345     0.0    0.00  2235.8 18234.5    0.00 18234.5 18234.5    0.00
 2020 162    57       0   22356  182332       0  182332  182332     0.0    0.00  2235.6 18233.2    0.00 18233.2 18233.2    0.00
 2020 163    58       0   22354  182321       0  182321  182321     0.0    0.00  2235.4 18232.0    0.00 18232.0 18232.0    0.00
 2020 164    59       0   22353  182310       0  182310  182310     0.1    0.00  2235.3 18231.0    0.00 18231.0 18231.0    0.00
 2020 165    60       0   22351  182301       0  182301  182300     0.2    0.00  2235.1 18230.0    0.00 18230.0 18230.0    0.01
 2020 166    61       0   22350  182291       0  182291  182291     0.3    0.00  2235.0 18229.1    0.00 18229.1 18229.1    0.01
 2020 167    62       0   22349  182281       0  182281  182280     0.4    0.00  2234.9 18228.0    0.00 18228.0 18228.0    0.01
 2020 168    63       0   22347  182270       0  182270  182270     0.6    0.00  2234.7 18227.0    0.00 18227.0 18227.0    0.02
 2020 169    64       0   22346  182260       0  182260  182259     0.8    0.00  2234.6 18225.9    0.00 18225.9 18225.9    0.02
 2020 170    65       0   22344  182247       0  182247  182246     1.0    0.00  2234.4 18224.7    0.00 18224.7 18224.6    0.03
 2020 171    66       0   22343  182235       0  182235  182233     1.3    0.00  2234.3 18223.4    0.00 18223.4 18223.3    0.04
 2020 172    67       0   22341  182223       0  182223  182222     1.7    0.00  2234.1 18222.2    0.00 18222.2 18222.2    0.06
 2020 173    68       0   22339  182212       0  182212  182210     2.2    0.00  2233.9 18221.1    0.00 18221.1 18221.0    0.07
 2020 174    69       0   22338  182201       0  182201  182199     2.7    0.00  2233.8 18219.9    0.00 18219.9 18219.9    0.09
 2020 175    70       0   22336  182191       0  182191  182188     3.3    0.00  2233.6 18218.9    0.00 18218.9 18218.8    0.10
 2020 176    71       0   22335  182181       0  182181  182177     4.0    0.00  2233.5 18217.8    0.00 18217.8 18217.7    0.13
 2020 177    72       0   22334  182171       0  182171  182166     4.9    0.00  2233.4 18216.7    0.00 18216.7 18216.6    0.15
 2020 178    73       0   22332  182160       0  182160  182154     5.8    0.00  2233.2 18215.6    0.00 18215.6 18215.4    0.18
 2020 179    74       0   22331  182150       0  182150  182143     6.9    0.00  2233.1 18214.5    0.00 18214.5 18214.3    0.22
 2020 180    75       0   22330  182139       0  182139  182131     8.1    0.00  2233.0 18213.4    0.00 18213.4 18213.1    0.25
 2020 181    76       0   22329  182129       0  182129  182120     9.4    0.00  2232.9 18212.3    0.00 18212.3 18212.0    0.29
 2020 182    77       0   22328  182120       0  182120  182109    10.8    0.00  2232.8 18211.3    0.00 18211.3 18210.9    0.34
 2020 183    78       0   22327  182111       0  182111  182099    12.3    0.00  2232.7 18210.2    0.00 18210.2 18209.9    0.38
 2020 184    79       0   22326  182103       0  182103  182089    14.1    0.00  2232.6 18209.3    0.00 18209.3 18208.9    0.43
 2020 185    80       0   22325  182095       0  182095  182079    16.0    0.00  2232.5 18208.4    0.00 18208.4 18207.9    0.48
 2020 186    81       0   22324  182084       0  182084  182067    17.7    0.00  2232.4 18207.1    0.00 18207.1 18206.6    0.52
 2020 187    82       0   22322  182073       0  182073  182054    19.3    0.00  2232.2 18205.9    0.00 18205.9 18205.3    0.56
 2020 188    83       0   22320  182063       0  182063  182042    21.2    0.00  2232.0 18204.7    0.00 18204.7 18204.1    0.61
 2020 189    84       0   22319  182053       0  182053  182030    23.1    0.00  2231.8 18203.6    0.00 18203.6 18202.9    0.66
 2020 190    85       0   22317  182044       0  182044  182018    25.2    0.00  2231.7 18202.4    0.00 18202.4 18201.7    0.71
 2020 191    86       0   22315  182034       0  182034  182006    27.6    0.00  2231.5 18201.3    0.00 18201.3 18200.5    0.76
 2020 192    87       0   22314  182025       0  182025  181995    30.1    0.00  2231.4 18200.2    0.00 18200.2 18199.4    0.81
 2020 193    88       0   22312  182016       0  182016  181983    32.7    0.00  2231.2 18199.1    0.00 18199.1 18198.2    0.87
 2020 194    89       0   22311  182007       0  182007  181972    35.4    0.00  2231.0 18198.0    0.00 18198.0 18197.1    0.93
 2020 195    90       0   22309  181999       0  181999  181961    38.0    0.00  2230.9 18197.0    0.00 18197.0 18196.0    0.99
 2020 196    91       0   22308  181992       0  181992  181951    40.8    0.00  2230.8 18196.0    0.00 18196.0 18195.0    1.05
 2020 197    92       0   22307  181985       0  181985  181942    43.7    0.00  2230.7 18195.1    0.00 18195.1 18194.0    1.12
 2020 198    93       0   22306  181979       0  181979  181932    46.6    0.00  2230.5 18194.2    0.00 18194.2 18193.0    1.18
 2020 199    94       0   22305  181973       0  181973  181924    49.7    0.00  2230.4 18193.4    0.00 18193.4 18192.2    1.25
 2020 200    95       0   22303  181964       0  181964  181913    51.7    0.00  2230.3 18192.3    0.00 18192.3 18191.0    1.32
 2020 201    96       0   22302  181955       0  181955  181901    53.6    0.00  2230.1 18191.2    0.00 18191.2 18189.8    1.39
 2020 202    97       0   22300  181946       0  181946  181890    55.4    0.00  2230.0 18190.1    0.00 18190.1 18188.7    1.45
 2020 203    98       0   22299  181936       0  181936  181879    57.1    0.00  2229.8 18189.0    0.00 18189.0 18187.5    1.52
 2020 204    99       0   22297  181927       0  181927  181868    59.1    0.00  2229.7 18187.9    0.00 18187.9 18186.3    1.58
 2020 205   100       0   22296  181918       0  181918  181856    61.3    0.00  2229.5 18186.8    0.00 18186.8 18185.2    1.64
 2020 206   101       0   22294  181909       0  181909  181845    63.8    0.00  2229.3 18185.8    0.00 18185.8 18184.1    1.71
 2020 207   102       0   22293  181901       0  181901  181834    66.4    0.00  2229.2 18184.7    0.00 18184.7 18182.9    1.78
 2020 208   103       0   22291  181892       0  181892  181823    69.1    0.00  2229.0 18183.6    0.00 18183.6 18181.7    1.84
 2020 209   104       0   22289  181882       0  181882  181811    71.4    0.00  2228.9 18182.4    0.00 18182.4 18180.5    1.91
 2020 210   105       0   22288  181873       0  181873  181800    73.7    0.00  2228.7 18181.3    0.00 18181.3 18179.3    1.98
 2020 211   106       0   22286  181865       0  181865  181789    75.8    0.00  2228.5 18180.3    0.00 18180.3 18178.2    2.05
 2020 212   107       0   22285  181857       0  181857  181778    78.1    0.00  2228.4 18179.2    0.00 18179.2 18177.1    2.11
 2020 213   108       0   22284  181849       0  181849  181769    80.4    0.00  2228.3 18178.3    0.00 18178.3 18176.1    2.18
 2020 214   109       0   22282  181842       0  181842  181759    82.9    0.00  2228.1 18177.4    0.00 18177.4 18175.1    2.25
 2020 215   110       0   22281  181835       0  181835  181750    85.2    0.00  2228.0 18176.4    0.00 18176.4 18174.1    2.32
 2020 216   111       0   22280  181827       0  181827  181740    87.6    0.00  2227.8 18175.5    0.00 18175.5 18173.1    2.39
 2020 217   112       0   22278  181820       0  181820  181731    89.9    0.00  2227.7 18174.6    0.00 18174.6 18172.1    2.46
 2020 218   113       0   22277  181813       0  181813  181721    92.2    0.00  2227.6 18173.7    0.00 18173.7 18171.1    2.53
 2020 219   114       0   22276  181806       0  181806  181712    94.5    0.00  2227.5 18172.7    0.00 18172.7 18170.1    2.60
 2020 220   115       0   22275  181799       0  181799  181703    96.9    0.00  2227.3 18171.9    0.00 18171.9 18169.2    2.67
 2020 221   116       0   22273  181792       0  181792  181693    98.8    0.00  2227.2 18170.9    0.00 18170.9 18168.2    2.74
 2020 222   117       0   22272  181784       0  181784  181683   100.6    0.00  2227.0 18170.0    0.00 18170.0 18167.1    2.81
 2020 223   118       0   22271  181775       0  181775  181673   102.4    0.00  2226.9 18168.9    0.00 18168.9 18166.0    2.88
 2020 224   119       0   22269  181766       0  181766  181662   104.1    0.00  2226.7 18167.9    0.00 18167.9 18164.9    2.94
 2020 225   120       0   22268  181757       0  181757  181651   105.9    0.00  2226.6 18166.8    0.00 18166.8 18163.8    3.01
 2020 226   121       0   22266  181748       0  181748  181640   107.8    0.00  2226.4 18165.8    0.00 18165.8 18162.7    3.08
 2020 227   122       0   22265  181740       0  181740  181630   109.9    0.00  2226.3 18164.7    0.00 18164.7 18161.6    3.14
 2020 228   123       0   22263  181732       0  181732  181620   112.0    0.00  2226.1 18163.7    0.00 18163.7 18160.5    3.21
 2020 229   124       0   22262  181724       0  181724  181610   114.3    0.00  2226.0 18162.8    0.00 18162.8 18159.5    3.29
 2020 230   125       0   22260  181716       0  181716  181600   116.5    0.00  2225.8 18161.8    0.00 18161.8 18158.4    3.36
 2020 231   126       0   22259  181709       0  181709  181590   118.8    0.00  2225.7 18160.9    0.00 18160.9 18157.4    3.43
 2020 232   127       0   22258  181702       0  181702  181581   121.2    0.00  2225.6 18159.9    0.00 18159.9 18156.4    3.50
 2020 233   128       0   22257  181695       0  181695  181571   123.6    0.00  2225.4 18159.0    0.00 18159.0 18155.5    3.58
 2020 234   129       0   22255  181688       0  181688  181562   126.1    0.00  2225.3 18158.2    0.00 18158.2 18154.5    3.65
 2020 235   130       0   22254  181679       0  181679  181552   127.3    0.00  2225.2 18157.1    0.00 18157.1 18153.4    3.72
 2020 236   131       0   22252  181669       0  181669  181541   127.7    0.00  2225.0 18156.1    0.00 18156.1 18152.3    3.78
 2020 237   132       0   22251  181659       0  181659  181531   128.0    0.00  2224.9 18155.0    0.00 18155.0 18151.2    3.83
 2020 238   133       0   22250  181648       0  181648  181520   128.4    0.00  2224.7 18153.9    0.00 18153.9 18150.0    3.88
 2020 239   134       0   22248  181638       0  181638  181509   129.0    0.00  2224.5 18152.8    0.00 18152.8 18148.8    3.93
 2020 240   135       0   22246  181627       0  181627  181498   129.6    0.00  2224.4 18151.6    0.00 18151.6 18147.6    3.98
 2020 241   136       0   22245  181617       0  181617  181486   130.2    0.00  2224.2 18150.5    0.00 18150.5 18146.5    4.03
 2020 242   137       0   22243  181606       0  181606  181475   130.7    0.00  2224.1 18149.3    0.00 18149.3 18145.2    4.08
 2020 243   138       0   22242  181595       0  181595  181464   131.4    0.00  2223.9 18148.2    0.00 18148.2 18144.1    4.13
 2020 244   139       0   22240  181585       0  181585  181453   131.6    0.00  2223.7 18147.1    0.00 18147.1 18142.9    4.17
 2020 245   140       0   22239  181575       0  181575  181443   132.1    0.00  2223.6 18146.1    0.00 18146.1 18141.9    4.21
 2020 246   141       0   22238  181566       0  181566  181433   133.0    0.00  2223.5 18145.1    0.00 18145.1 18140.8    4.26
 2020 247   142       0   22236  181558       0  181558  181424   134.1    0.00  2223.3 18144.2    0.00 18144.2 18139.9    4.31
 2020 248   143       0   22235  181550       0  181550  181415   135.2    0.00  2223.2 18143.2    0.00 18143.2 18138.9    4.36
 2020 249   144       0   22234  181542       0  181542  181406   136.3    0.00  2223.1 18142.3    0.00 18142.3 18137.9    4.41
 2020 250   145       0   22233  181533       0  181533  181396   137.3    0.00  2222.9 18141.4    0.00 18141.4 18136.9    4.46
 2020 251   146       0   22231  181524       0  181524  181386   138.1    0.00  2222.8 18140.3    0.00 18140.3 18135.8    4.51
 2020 252   147       0   22230  181514       0  181514  181376   138.8    0.00  2222.7 18139.3    0.00 18139.3 18134.7    4.55
 2020 253   148       0   22229  181506       0  181506  181366   139.6    0.00  2222.5 18138.3    0.00 18138.3 18133.7    4.60
 2020 254   149       0   22228  181499       0  181499  181358   141.1    0.00  2222.4 18137.5    0.00 18137.5 18132.8    4.66
 2020 255   150       0   22227  181494       0  181494  181351   143.2    0.00  2222.3 18136.9    0.00 18136.9 18132.1    4.72
 2020 256   151       0   22226  181491       0  181491  181345   145.4    0.00  2222.3 18136.3    0.00 18136.3 18131.5    4.79
 2020 257   152       0   22226  181488       0  181488  181340   147.9    0.00  2222.2 18135.8    0.00 18135.8 18131.0    4.87
 2020 258   153       0   22225  181484       0  181484  181334   149.8    0.00  2222.1 18135.3    0.00 18135.3 18130.3    4.94
 2020 259   154       0   22224  181477       0  181477  181326   151.0    0.00  2222.0 18134.5    0.00 18134.5 18129.5    4.99
 2020 260   155       0   22223  181470       0  181470  181318   151.6    0.00  2221.9 18133.7    0.00 18133.7 18128.6    5.04
 2020 261   156       0   22222  181461       0  181461  181309   152.1    0.00  2221.8 18132.8    0.00 18132.8 18127.7    5.08
 2020 262   157       0   22221  181453       0  181453  181301   152.7    0.00  2221.7 18131.9    0.00 18131.9 18126.8    5.13
 2020 263   158       0   22220  181446       0  181446  181292   153.4    0.00  2221.6 18131.0    0.00 18131.0 18125.9    5.17
 2020 264   159       0   22218  181438       0  181438  181284   154.2    0.00  2221.4 18130.2    0.00 18130.2 18125.0    5.22
 2020 265   160       0   22217  181430       0  181430  181275   154.9    0.00  2221.3 18129.3    0.00 18129.3 18124.1    5.26
 2020 266   161       0   22216  181422       0  181422  181266   155.6    0.00  2221.2 18128.4    0.00 18128.4 18123.1    5.30
 2020 267   162       0   22215  181414       0  181414  181258   156.2    0.00  2221.1 18127.6    0.00 18127.6 18122.2    5.35
 2020 268   163       0   22214  181406       0  181406  181249   156.8    0.00  2221.0 18126.7    0.00 18126.7 18121.3    5.39
 2020 269   164       0   22213  181397       0  181397  181240   157.3    0.00  2220.9 18125.7    0.00 18125.7 18120.3    5.42
 2020 270   165       0   22212  181388       0  181388  181230   157.7    0.00  2220.7 18124.8    0.00 18124.8 18119.3    5.46
 2020 271   166       0   22210  181378       0  181378  181220   158.0    0.00  2220.6 18123.8    0.00 18123.8 18118.3    5.49
 2020 272   167       0   22209  181365       0  181365  181211   154.0    0.00  2220.5 18122.7    0.00 18122.7 18117.3    5.41
 2020 273   168       0   22208  181352       0  181352  181202   150.4    0.00  2220.4 18121.7    0.00 18121.7 18116.3    5.33
 2020 274   169       0   22207  181341       0  181341  181194   147.1    0.00  2220.2 18120.7    0.00 18120.7 18115.5    5.26
 2020 275   170       0   22206  181330       0  181330  181186   144.3    0.00  2220.2 18119.8    0.00 18119.8 18114.6    5.20
 2020 276   171       0   22205  181320       0  181320  181178   141.8    0.00  2220.1 18119.0    0.00 18119.0 18113.9    5.14
 2020 277   172       0   22204  181311       0  181311  181171   139.5    0.00  2220.0 18118.2    0.00 18118.2 18113.1    5.09

*DSSAT Cropping System Model Ver. 4.7.5.035 -develop  JUN 11, 2021 16:21:59

*RUN   2        : 20 IRRIG, PETPEN KCB..... MZCER047 KSRT2001    2
 MODEL          : MZCER047 - Maize
 EXPERIMENT     : KSRT2001 SB ARM 2020 KS, IRRIGATED & NON-IRRIGATED
 DATA PATH      :
 TREATMENT  2   : 20 IRRIG, PETPEN KCB..... MZCER047
  
@YEAR DOY   DAS    OMAC    SCDD    SOCD    SC0D    SCTD   SOMCT    LCTD    ONAC    SNDD    SOND    SN0D    SNTD   SOMNT    LNTD
 2020 105     0       0   22422  182825       0  182825  182825     0.0    0.00  2242.2 18282.5    0.00 18282.5 18282.5    0.00
 2020 106     1       0   22421  182819       0  182819  182819     0.0    0.00  2242.1 18281.9    0.00 18281.9 18281.9    0.00
 2020 107     2       0   22421  182814       0  182814  182814     0.0    0.00  2242.1 18281.4    0.00 18281.4 18281.4    0.00
 2020 108     3       0   22420  182808       0  182808  182808     0.0    0.00  2242.0 18280.8    0.00 18280.8 18280.8    0.00
 2020 109     4       0   22419  182803       0  182803  182803     0.0    0.00  2241.9 18280.3    0.00 18280.3 18280.3    0.00
 2020 110     5       0   22419  182798       0  182798  182798     0.0    0.00  2241.9 18279.8    0.00 18279.8 18279.8    0.00
 2020 111     6       0   22418  182792       0  182792  182792     0.0    0.00  2241.8 18279.2    0.00 18279.2 18279.2    0.00
 2020 112     7       0   22417  182786       0  182786  182786     0.0    0.00  2241.7 18278.6    0.00 18278.6 18278.6    0.00
 2020 113     8       0   22416  182779       0  182779  182779     0.0    0.00  2241.6 18277.9    0.00 18277.9 18277.9    0.00
 2020 114     9       0   22415  182772       0  182772  182772     0.0    0.00  2241.5 18277.2    0.00 18277.2 18277.2    0.00
 2020 115    10       0   22414  182765       0  182765  182765     0.0    0.00  2241.4 18276.5    0.00 18276.5 18276.5    0.00
 2020 116    11       0   22413  182758       0  182758  182758     0.0    0.00  2241.3 18275.8    0.00 18275.8 18275.8    0.00
 2020 117    12       0   22413  182751       0  182751  182751     0.0    0.00  2241.3 18275.1    0.00 18275.1 18275.1    0.00
 2020 118    13       0   22412  182744       0  182744  182744     0.0    0.00  2241.2 18274.4    0.00 18274.4 18274.4    0.00
 2020 119    14       0   22411  182736       0  182736  182736     0.0    0.00  2241.1 18273.6    0.00 18273.6 18273.6    0.00
 2020 120    15       0   22410  182728       0  182728  182728     0.0    0.00  2241.0 18272.8    0.00 18272.8 18272.8    0.00
 2020 121    16       0   22408  182719       0  182719  182719     0.0    0.00  2240.8 18271.9    0.00 18271.9 18271.9    0.00
 2020 122    17       0   22407  182709       0  182709  182709     0.0    0.00  2240.7 18270.9    0.00 18270.9 18270.9    0.00
 2020 123    18       0   22406  182699       0  182699  182699     0.0    0.00  2240.6 18269.9    0.00 18269.9 18269.9    0.00
 2020 124    19       0   22404  182689       0  182689  182689     0.0    0.00  2240.4 18268.9    0.00 18268.9 18268.9    0.00
 2020 125    20       0   22403  182679       0  182679  182679     0.0    0.00  2240.3 18267.9    0.00 18267.9 18267.9    0.00
 2020 126    21       0   22402  182669       0  182669  182669     0.0    0.00  2240.2 18266.9    0.00 18266.9 18266.9    0.00
 2020 127    22       0   22400  182660       0  182660  182660     0.0    0.00  2240.0 18266.0    0.00 18266.0 18266.0    0.00
 2020 128    23       0   22399  182651       0  182651  182651     0.0    0.00  2239.9 18265.1    0.00 18265.1 18265.1    0.00
 2020 129    24       0   22398  182642       0  182642  182642     0.0    0.00  2239.8 18264.2    0.00 18264.2 18264.2    0.00
 2020 130    25       0   22397  182634       0  182634  182634     0.0    0.00  2239.7 18263.4    0.00 18263.4 18263.4    0.00
 2020 131    26       0   22396  182626       0  182626  182626     0.0    0.00  2239.6 18262.6    0.00 18262.6 18262.6    0.00
 2020 132    27       0   22395  182619       0  182619  182619     0.0    0.00  2239.5 18261.9    0.00 18261.9 18261.9    0.00
 2020 133    28       0   22394  182612       0  182612  182612     0.0    0.00  2239.4 18261.2    0.00 18261.2 18261.2    0.00
 2020 134    29       0   22393  182608       0  182608  182608     0.0    0.00  2239.3 18260.8    0.00 18260.8 18260.8    0.00
 2020 135    30       0   22393  182603       0  182603  182603     0.0    0.00  2239.3 18260.3    0.00 18260.3 18260.3    0.00
 2020 136    31       0   22392  182597       0  182597  182597     0.0    0.00  2239.2 18259.7    0.00 18259.7 18259.7    0.00
 2020 137    32       0   22392  182592       0  182592  182592     0.0    0.00  2239.2 18259.2    0.00 18259.2 18259.2    0.00
 2020 138    33       0   22391  182585       0  182585  182585     0.0    0.00  2239.1 18258.5    0.00 18258.5 18258.5    0.00
 2020 139    34       0   22390  182576       0  182576  182576     0.0    0.00  2239.0 18257.6    0.00 18257.6 18257.6    0.00
 2020 140    35       0   22388  182567       0  182567  182567     0.0    0.00  2238.8 18256.7    0.00 18256.7 18256.7    0.00
 2020 141    36       0   22387  182558       0  182558  182558     0.0    0.00  2238.7 18255.8    0.00 18255.8 18255.8    0.00
 2020 142    37       0   22386  182549       0  182549  182549     0.0    0.00  2238.6 18254.9    0.00 18254.9 18254.9    0.00
 2020 143    38       0   22385  182539       0  182539  182539     0.0    0.00  2238.5 18254.0    0.00 18254.0 18254.0    0.00
 2020 144    39       0   22383  182530       0  182530  182530     0.0    0.00  2238.3 18253.0    0.00 18253.0 18253.0    0.00
 2020 145    40       0   22382  182520       0  182520  182520     0.0    0.00  2238.2 18252.1    0.00 18252.1 18252.1    0.00
 2020 146    41       0   22381  182511       0  182511  182511     0.0    0.00  2238.1 18251.1    0.00 18251.1 18251.1    0.00
 2020 147    42       0   22379  182502       0  182502  182502     0.0    0.00  2237.9 18250.2    0.00 18250.2 18250.2    0.00
 2020 148    43       0   22378  182493       0  182493  182493     0.0    0.00  2237.8 18249.3    0.00 18249.3 18249.3    0.00
 2020 149    44       0   22377  182484       0  182484  182484     0.0    0.00  2237.7 18248.4    0.00 18248.4 18248.4    0.00
 2020 150    45       0   22376  182476       0  182476  182476     0.0    0.00  2237.6 18247.6    0.00 18247.6 18247.6    0.00
 2020 151    46       0   22375  182467       0  182467  182467     0.0    0.00  2237.5 18246.7    0.00 18246.7 18246.7    0.00
 2020 152    47       0   22373  182457       0  182457  182457     0.0    0.00  2237.3 18245.7    0.00 18245.7 18245.7    0.00
 2020 153    48       0   22372  182446       0  182446  182446     0.0    0.00  2237.2 18244.6    0.00 18244.6 18244.6    0.00
 2020 154    49       0   22370  182434       0  182434  182434     0.0    0.00  2237.0 18243.4    0.00 18243.4 18243.4    0.00
 2020 155    50       0   22369  182422       0  182422  182422     0.0    0.00  2236.9 18242.2    0.00 18242.2 18242.2    0.00
 2020 156    51       0   22367  182409       0  182409  182409     0.0    0.00  2236.7 18240.9    0.00 18240.9 18240.9    0.00
 2020 157    52       0   22365  182396       0  182396  182396     0.0    0.00  2236.5 18239.6    0.00 18239.6 18239.6    0.00
 2020 158    53       0   22363  182383       0  182383  182383     0.0    0.00  2236.3 18238.3    0.00 18238.3 18238.3    0.00
 2020 159    54       0   22361  182370       0  182370  182370     0.0    0.00  2236.1 18237.0    0.00 18237.0 18237.0    0.00
 2020 160    55       0   22360  182356       0  182356  182356     0.0    0.00  2236.0 18235.6    0.00 18235.6 18235.6    0.00
 2020 161    56       0   22358  182343       0  182343  182343     0.0    0.00  2235.8 18234.3    0.00 18234.3 18234.3    0.00
 2020 162    57       0   22356  182330       0  182330  182330     0.0    0.00  2235.6 18233.0    0.00 18233.0 18233.0    0.00
 2020 163    58       0   22354  182319       0  182319  182319     0.0    0.00  2235.4 18231.9    0.00 18231.9 18231.9    0.00
 2020 164    59       0   22353  182307       0  182307  182307     0.0    0.00  2235.3 18230.7    0.00 18230.7 18230.7    0.00
 2020 165    60       0   22351  182296       0  182296  182296     0.0    0.00  2235.1 18229.6    0.00 18229.6 18229.6    0.00
 2020 166    61       0   22350  182285       0  182285  182285     0.0    0.00  2235.0 18228.5    0.00 18228.5 18228.5    0.00
 2020 167    62       0   22348  182272       0  182272  182272     0.0    0.00  2234.8 18227.2    0.00 18227.2 18227.2    0.00
 2020 168    63       0   22346  182259       0  182259  182259     0.0    0.00  2234.6 18225.9    0.00 18225.9 18225.9    0.00
 2020 169    64       0   22344  182246       0  182246  182246     0.1    0.00  2234.4 18224.6    0.00 18224.6 18224.6    0.00
 2020 170    65       0   22343  182234       0  182234  182234     0.1    0.00  2234.3 18223.4    0.00 18223.4 18223.4    0.00
 2020 171    66       0   22341  182222       0  182222  182222     0.2    0.00  2234.1 18222.2    0.00 18222.2 18222.2    0.01
 2020 172    67       0   22340  182212       0  182212  182212     0.2    0.00  2234.0 18221.2    0.00 18221.2 18221.2    0.01
 2020 173    68       0   22339  182202       0  182202  182202     0.3    0.00  2233.9 18220.2    0.00 18220.2 18220.2    0.01
 2020 174    69       0   22338  182192       0  182192  182192     0.3    0.00  2233.8 18219.2    0.00 18219.2 18219.2    0.01
 2020 175    70       0   22337  182183       0  182183  182182     0.4    0.00  2233.7 18218.3    0.00 18218.3 18218.2    0.01
 2020 176    71       0   22336  182174       0  182174  182173     0.5    0.00  2233.6 18217.3    0.00 18217.3 18217.3    0.01
 2020 177    72       0   22335  182164       0  182164  182164     0.5    0.00  2233.5 18216.4    0.00 18216.4 18216.4    0.02
 2020 178    73       0   22334  182154       0  182154  182154     0.6    0.00  2233.4 18215.4    0.00 18215.4 18215.4    0.02
 2020 179    74       0   22333  182145       0  182145  182144     0.7    0.00  2233.3 18214.4    0.00 18214.4 18214.4    0.02
 2020 180    75       0   22333  182134       0  182134  182134     0.8    0.00  2233.3 18213.4    0.00 18213.4 18213.4    0.03
 2020 181    76       0   22332  182124       0  182124  182123     0.9    0.00  2233.2 18212.4    0.00 18212.4 18212.3    0.03
 2020 182    77       0   22331  182114       0  182114  182113     1.0    0.00  2233.1 18211.3    0.00 18211.3 18211.3    0.04
 2020 183    78       0   22330  182103       0  182103  182102     1.1    0.00  2233.0 18210.3    0.00 18210.3 18210.2    0.04
 2020 184    79       0   22329  182093       0  182093  182092     1.2    0.00  2232.9 18209.3    0.00 18209.3 18209.2    0.04
 2020 185    80       0   22329  182083       0  182083  182082     1.4    0.00  2232.9 18208.3    0.00 18208.3 18208.2    0.05
 2020 186    81       0   22328  182074       0  182074  182072     1.5    0.00  2232.8 18207.3    0.00 18207.3 18207.2    0.05
 2020 187    82       0   22327  182065       0  182065  182063     1.6    0.00  2232.7 18206.4    0.00 18206.4 18206.3    0.05
 2020 188    83       0   22327  182056       0  182056  182054     1.6    0.00  2232.7 18205.5    0.00 18205.5 18205.4    0.05
 2020 189    84       0   22326  182047       0  182047  182045     1.7    0.00  2232.6 18204.6    0.00 18204.6 18204.5    0.06
 2020 190    85       0   22325  182039       0  182039  182037     1.8    0.00  2232.5 18203.7    0.00 18203.7 18203.7    0.06
 2020 191    86       0   22324  182027       0  182027  182025     2.0    0.00  2232.4 18202.5    0.00 18202.5 18202.5    0.07
 2020 192    87       0   22322  182014       0  182014  182012     2.0    0.00  2232.2 18201.3    0.00 18201.3 18201.2    0.07
 2020 193    88       0   22320  182002       0  182002  182000     2.1    0.00  2232.0 18200.0    0.00 18200.0 18200.0    0.07
 2020 194    89       0   22319  181989       0  181989  181987     2.2    0.00  2231.9 18198.8    0.00 18198.8 18198.7    0.07
 2020 195    90       0   22317  181977       0  181977  181974     2.4    0.00  2231.7 18197.5    0.00 18197.5 18197.4    0.08
 2020 196    91       0   22315  181965       0  181965  181963     2.5    0.00  2231.5 18196.3    0.00 18196.3 18196.3    0.08
 2020 197    92       0   22314  181954       0  181954  181951     2.7    0.00  2231.4 18195.2    0.00 18195.2 18195.1    0.09
 2020 198    93       0   22313  181943       0  181943  181940     2.9    0.00  2231.3 18194.1    0.00 18194.1 18194.0    0.09
 2020 199    94       0   22312  181932       0  181932  181929     3.0    0.00  2231.2 18193.0    0.00 18193.0 18192.9    0.10
 2020 200    95       0   22311  181922       0  181922  181919     3.2    0.00  2231.1 18192.0    0.00 18192.0 18191.9    0.10
 2020 201    96       0   22310  181912       0  181912  181908     3.5    0.00  2231.0 18190.9    0.00 18190.9 18190.8    0.11
 2020 202    97       0   22309  181902       0  181902  181898     3.7    0.00  2230.9 18189.9    0.00 18189.9 18189.8    0.12
 2020 203    98       0   22308  181892       0  181892  181888     3.9    0.00  2230.8 18188.9    0.00 18188.9 18188.8    0.12
 2020 204    99       0   22307  181883       0  181883  181878     4.2    0.00  2230.7 18188.0    0.00 18188.0 18187.8    0.13
 2020 205   100       0   22306  181874       0  181874  181869     4.5    0.00  2230.6 18187.1    0.00 18187.1 18186.9    0.14
 2020 206   101       0   22305  181865       0  181865  181861     4.8    0.00  2230.5 18186.2    0.00 18186.2 18186.1    0.15
 2020 207   102       0   22305  181857       0  181857  181852     5.1    0.00  2230.5 18185.4    0.00 18185.4 18185.2    0.16
 2020 208   103       0   22304  181849       0  181849  181843     5.4    0.00  2230.4 18184.5    0.00 18184.5 18184.3    0.17
 2020 209   104       0   22302  181836       0  181836  181830     5.4    0.00  2230.2 18183.2    0.00 18183.2 18183.0    0.17
 2020 210   105       0   22301  181823       0  181823  181818     5.4    0.00  2230.1 18182.0    0.00 18182.0 18181.8    0.17
 2020 211   106       0   22299  181812       0  181812  181806     5.4    0.00  2229.9 18180.8    0.00 18180.8 18180.6    0.17
 2020 212   107       0   22298  181801       0  181801  181795     5.8    0.00  2229.8 18179.7    0.00 18179.7 18179.5    0.18
 2020 213   108       0   22296  181790       0  181790  181784     5.8    0.00  2229.6 18178.6    0.00 18178.6 18178.4    0.18
 2020 214   109       0   22295  181780       0  181780  181774     6.2    0.00  2229.5 18177.6    0.00 18177.6 18177.4    0.19
 2020 215   110       0   22294  181770       0  181770  181763     6.6    0.00  2229.4 18176.5    0.00 18176.5 18176.3    0.20
 2020 216   111       0   22292  181759       0  181759  181752     6.5    0.00  2229.2 18175.4    0.00 18175.4 18175.2    0.20
 2020 217   112       0   22291  181749       0  181749  181742     6.5    0.00  2229.1 18174.4    0.00 18174.4 18174.2    0.20
 2020 218   113       0   22289  181738       0  181738  181732     6.5    0.00  2228.9 18173.4    0.00 18173.4 18173.2    0.20
 2020 219   114       0   22288  181728       0  181728  181722     6.5    0.00  2228.8 18172.4    0.00 18172.4 18172.2    0.20
 2020 220   115       0   22287  181718       0  181718  181712     6.5    0.00  2228.7 18171.4    0.00 18171.4 18171.2    0.20
 2020 221   116       0   22285  181708       0  181708  181701     6.5    0.00  2228.5 18170.3    0.00 18170.3 18170.1    0.20
 2020 222   117       0   22284  181697       0  181697  181691     6.5    0.00  2228.4 18169.3    0.00 18169.3 18169.1    0.20
 2020 223   118       0   22282  181686       0  181686  181679     7.0    0.00  2228.2 18168.2    0.00 18168.2 18167.9    0.21
 2020 224   119       0   22281  181676       0  181676  181668     7.5    0.00  2228.1 18167.0    0.00 18167.0 18166.8    0.22
 2020 225   120       0   22279  181665       0  181665  181657     7.9    0.00  2227.9 18165.9    0.00 18165.9 18165.7    0.24
 2020 226   121       0   22278  181654       0  181654  181646     8.4    0.00  2227.8 18164.9    0.00 18164.9 18164.6    0.25
 2020 227   122       0   22276  181645       0  181645  181636     8.8    0.00  2227.6 18163.8    0.00 18163.8 18163.6    0.27
 2020 228   123       0   22275  181635       0  181635  181626     9.2    0.00  2227.5 18162.8    0.00 18162.8 18162.6    0.28
 2020 229   124       0   22274  181626       0  181626  181616     9.6    0.00  2227.4 18161.9    0.00 18161.9 18161.6    0.29
 2020 230   125       0   22273  181617       0  181617  181607    10.1    0.00  2227.3 18161.0    0.00 18161.0 18160.7    0.31
 2020 231   126       0   22272  181608       0  181608  181598    10.5    0.00  2227.2 18160.1    0.00 18160.1 18159.8    0.32
 2020 232   127       0   22271  181600       0  181600  181589    11.0    0.00  2227.1 18159.2    0.00 18159.2 18158.9    0.34
 2020 233   128       0   22270  181592       0  181592  181580    11.5    0.00  2227.0 18158.4    0.00 18158.4 18158.0    0.35
 2020 234   129       0   22269  181584       0  181584  181572    12.0    0.00  2226.9 18157.5    0.00 18157.5 18157.2    0.37
 2020 235   130       0   22268  181576       0  181576  181564    12.5    0.00  2226.8 18156.7    0.00 18156.7 18156.4    0.38
 2020 236   131       0   22267  181565       0  181565  181552    12.8    0.00  2226.7 18155.6    0.00 18155.6 18155.2    0.39
 2020 237   132       0   22265  181554       0  181554  181541    13.0    0.00  2226.5 18154.4    0.00 18154.4 18154.0    0.40
 2020 238   133       0   22264  181542       0  181542  181529    13.3    0.00  2226.4 18153.3    0.00 18153.3 18152.8    0.42
 2020 239   134       0   22262  181530       0  181530  181517    13.6    0.00  2226.2 18152.1    0.00 18152.1 18151.6    0.43
 2020 240   135       0   22260  181518       0  181518  181505    13.9    0.00  2226.0 18150.8    0.00 18150.8 18150.4    0.44
 2020 241   136       0   22259  181507       0  181507  181492    14.2    0.00  2225.9 18149.6    0.00 18149.6 18149.2    0.45
 2020 242   137       0   22257  181494       0  181494  181480    14.5    0.00  2225.7 18148.4    0.00 18148.4 18147.9    0.46
 2020 243   138       0   22256  181483       0  181483  181468    14.8    0.00  2225.5 18147.2    0.00 18147.2 18146.7    0.47
 2020 244   139       0   22254  181471       0  181471  181456    14.9    0.00  2225.4 18146.0    0.00 18146.0 18145.5    0.48
 2020 245   140       0   22253  181460       0  181460  181445    15.3    0.00  2225.2 18144.9    0.00 18144.9 18144.4    0.49
 2020 246   141       0   22251  181450       0  181450  181435    15.5    0.00  2225.1 18143.9    0.00 18143.9 18143.4    0.50
 2020 247   142       0   22250  181440       0  181440  181425    15.8    0.00  2225.0 18142.9    0.00 18142.9 18142.4    0.51
 2020 248   143       0   22249  181430       0  181430  181414    16.0    0.00  2224.8 18141.9    0.00 18141.9 18141.4    0.52
 2020 249   144       0   22247  181421       0  181421  181404    16.3    0.00  2224.7 18140.9    0.00 18140.9 18140.3    0.53
 2020 250   145       0   22246  181410       0  181410  181394    16.5    0.00  2224.6 18139.8    0.00 18139.8 18139.3    0.54
 2020 251   146       0   22244  181399       0  181399  181383    16.7    0.00  2224.4 18138.7    0.00 18138.7 18138.1    0.55
 2020 252   147       0   22243  181388       0  181388  181371    16.8    0.00  2224.3 18137.5    0.00 18137.5 18137.0    0.56
 2020 253   148       0   22242  181377       0  181377  181360    17.0    0.00  2224.1 18136.5    0.00 18136.5 18135.9    0.57
 2020 254   149       0   22240  181369       0  181369  181351    17.2    0.00  2224.0 18135.6    0.00 18135.6 18135.0    0.58
 2020 255   150       0   22240  181362       0  181362  181344    17.5    0.00  2223.9 18134.9    0.00 18134.9 18134.3    0.59
 2020 256   151       0   22239  181356       0  181356  181338    17.8    0.00  2223.9 18134.2    0.00 18134.2 18133.6    0.60
 2020 257   152       0   22238  181350       0  181350  181332    18.1    0.00  2223.8 18133.7    0.00 18133.7 18133.0    0.61
 2020 258   153       0   22238  181343       0  181343  181325    18.4    0.00  2223.7 18133.0    0.00 18133.0 18132.3    0.62
 2020 259   154       0   22236  181335       0  181335  181316    18.4    0.00  2223.6 18132.1    0.00 18132.1 18131.5    0.63
 2020 260   155       0   22235  181325       0  181325  181307    18.4    0.00  2223.5 18131.1    0.00 18131.1 18130.5    0.63
 2020 261   156       0   22234  181315       0  181315  181296    18.4    0.00  2223.4 18130.1    0.00 18130.1 18129.5    0.64
 2020 262   157       0   22233  181305       0  181305  181286    18.4    0.00  2223.2 18129.1    0.00 18129.1 18128.5    0.64
 2020 263   158       0   22232  181295       0  181295  181277    18.5    0.00  2223.1 18128.1    0.00 18128.1 18127.5    0.65
 2020 264   159       0   22230  181285       0  181285  181267    18.4    0.00  2223.0 18127.1    0.00 18127.1 18126.5    0.65
 2020 265   160       0   22229  181275       0  181275  181256    18.5    0.00  2222.9 18126.1    0.00 18126.1 18125.4    0.65
 2020 266   161       0   22228  181265       0  181265  181246    18.5    0.00  2222.7 18125.1    0.00 18125.1 18124.4    0.66
 2020 267   162       0   22227  181254       0  181254  181236    18.4    0.00  2222.6 18124.0    0.00 18124.0 18123.4    0.66
 2020 268   163       0   22225  181244       0  181244  181225    18.4    0.00  2222.5 18123.0    0.00 18123.0 18122.3    0.66
 2020 269   164       0   22224  181233       0  181233  181214    18.4    0.00  2222.3 18121.9    0.00 18121.9 18121.2    0.67
 2020 270   165       0   22222  181221       0  181221  181203    18.3    0.00  2222.2 18120.7    0.00 18120.7 18120.0    0.67
 2020 271   166       0   22221  181209       0  181209  181191    18.3    0.00  2222.1 18119.5    0.00 18119.5 18118.9    0.67
 2020 272   167       0   22219  181197       0  181197  181180    17.7    0.00  2221.9 18118.4    0.00 18118.4 18117.7    0.65
 2020 273   168       0   22218  181186       0  181186  181169    17.2    0.00  2221.8 18117.3    0.00 18117.3 18116.6    0.64
 2020 274   169       0   22217  181176       0  181176  181159    16.8    0.00  2221.6 18116.2    0.00 18116.2 18115.6    0.63
 2020 275   170       0   22216  181166       0  181166  181149    16.4    0.00  2221.5 18115.3    0.00 18115.3 18114.7    0.62
 2020 276   171       0   22215  181157       0  181157  181141    16.1    0.00  2221.4 18114.4    0.00 18114.4 18113.8    0.61
 2020 277   172       0   22214  181148       0  181148  181132    15.8    0.00  2221.3 18113.5    0.00 18113.5 18112.9    0.60

*DSSAT Cropping System Model Ver. 4.7.5.035 -develop  JUN 11, 2021 16:21:59

*RUN   3        : 20 IRRIG, ASCE SHORT..... MZCER047 KSRT2001    3
 MODEL          : MZCER047 - Maize
 EXPERIMENT     : KSRT2001 SB ARM 2020 KS, IRRIGATED & NON-IRRIGATED
 DATA PATH      :
 TREATMENT  3   : 20 IRRIG, ASCE SHORT..... MZCER047
  
@YEAR DOY   DAS    OMAC    SCDD    SOCD    SC0D    SCTD   SOMCT    LCTD    ONAC    SNDD    SOND    SN0D    SNTD   SOMNT    LNTD
 2020 105     0       0   22422  182825       0  182825  182825     0.0    0.00  2242.2 18282.5    0.00 18282.5 18282.5    0.00
 2020 106     1       0   22421  182819       0  182819  182819     0.0    0.00  2242.1 18281.9    0.00 18281.9 18281.9    0.00
 2020 107     2       0   22421  182814       0  182814  182814     0.0    0.00  2242.1 18281.4    0.00 18281.4 18281.4    0.00
 2020 108     3       0   22420  182808       0  182808  182808     0.0    0.00  2242.0 18280.8    0.00 18280.8 18280.8    0.00
 2020 109     4       0   22419  182803       0  182803  182803     0.0    0.00  2241.9 18280.3    0.00 18280.3 18280.3    0.00
 2020 110     5       0   22419  182798       0  182798  182798     0.0    0.00  2241.9 18279.8    0.00 18279.8 18279.8    0.00
 2020 111     6       0   22418  182792       0  182792  182792     0.0    0.00  2241.8 18279.2    0.00 18279.2 18279.2    0.00
 2020 112     7       0   22417  182786       0  182786  182786     0.0    0.00  2241.7 18278.6    0.00 18278.6 18278.6    0.00
 2020 113     8       0   22416  182779       0  182779  182779     0.0    0.00  2241.6 18277.9    0.00 18277.9 18277.9    0.00
 2020 114     9       0   22415  182772       0  182772  182772     0.0    0.00  2241.5 18277.2    0.00 18277.2 18277.2    0.00
 2020 115    10       0   22414  182765       0  182765  182765     0.0    0.00  2241.4 18276.5    0.00 18276.5 18276.5    0.00
 2020 116    11       0   22414  182758       0  182758  182758     0.0    0.00  2241.4 18275.8    0.00 18275.8 18275.8    0.00
 2020 117    12       0   22413  182751       0  182751  182751     0.0    0.00  2241.3 18275.1    0.00 18275.1 18275.1    0.00
 2020 118    13       0   22412  182744       0  182744  182744     0.0    0.00  2241.2 18274.4    0.00 18274.4 18274.4    0.00
 2020 119    14       0   22411  182736       0  182736  182736     0.0    0.00  2241.1 18273.6    0.00 18273.6 18273.6    0.00
 2020 120    15       0   22410  182728       0  182728  182728     0.0    0.00  2241.0 18272.8    0.00 18272.8 18272.8    0.00
 2020 121    16       0   22408  182719       0  182719  182719     0.0    0.00  2240.8 18271.9    0.00 18271.9 18271.9    0.00
 2020 122    17       0   22407  182709       0  182709  182709     0.0    0.00  2240.7 18270.9    0.00 18270.9 18270.9    0.00
 2020 123    18       0   22406  182699       0  182699  182699     0.0    0.00  2240.6 18269.9    0.00 18269.9 18269.9    0.00
 2020 124    19       0   22404  182689       0  182689  182689     0.0    0.00  2240.4 18268.9    0.00 18268.9 18268.9    0.00
 2020 125    20       0   22403  182680       0  182680  182680     0.0    0.00  2240.3 18268.0    0.00 18268.0 18268.0    0.00
 2020 126    21       0   22402  182670       0  182670  182670     0.0    0.00  2240.2 18267.0    0.00 18267.0 18267.0    0.00
 2020 127    22       0   22400  182660       0  182660  182660     0.0    0.00  2240.0 18266.0    0.00 18266.0 18266.0    0.00
 2020 128    23       0   22399  182651       0  182651  182651     0.0    0.00  2239.9 18265.1    0.00 18265.1 18265.1    0.00
 2020 129    24       0   22398  182642       0  182642  182642     0.0    0.00  2239.8 18264.2    0.00 18264.2 18264.2    0.00
 2020 130    25       0   22397  182634       0  182634  182634     0.0    0.00  2239.7 18263.4    0.00 18263.4 18263.4    0.00
 2020 131    26       0   22396  182626       0  182626  182626     0.0    0.00  2239.6 18262.6    0.00 18262.6 18262.6    0.00
 2020 132    27       0   22395  182619       0  182619  182619     0.0    0.00  2239.5 18261.9    0.00 18261.9 18261.9    0.00
 2020 133    28       0   22394  182613       0  182613  182613     0.0    0.00  2239.4 18261.3    0.00 18261.3 18261.3    0.00
 2020 134    29       0   22393  182608       0  182608  182608     0.0    0.00  2239.3 18260.8    0.00 18260.8 18260.8    0.00
 2020 135    30       0   22393  182603       0  182603  182603     0.0    0.00  2239.3 18260.3    0.00 18260.3 18260.3    0.00
 2020 136    31       0   22392  182598       0  182598  182598     0.0    0.00  2239.2 18259.8    0.00 18259.8 18259.8    0.00
 2020 137    32       0   22392  182592       0  182592  182592     0.0    0.00  2239.2 18259.2    0.00 18259.2 18259.2    0.00
 2020 138    33       0   22391  182585       0  182585  182585     0.0    0.00  2239.1 18258.5    0.00 18258.5 18258.5    0.00
 2020 139    34       0   22390  182577       0  182577  182577     0.0    0.00  2239.0 18257.7    0.00 18257.7 18257.7    0.00
 2020 140    35       0   22388  182568       0  182568  182568     0.0    0.00  2238.8 18256.8    0.00 18256.8 18256.8    0.00
 2020 141    36       0   22387  182558       0  182558  182558     0.0    0.00  2238.7 18255.8    0.00 18255.8 18255.8    0.00
 2020 142    37       0   22386  182549       0  182549  182549     0.0    0.00  2238.6 18254.9    0.00 18254.9 18254.9    0.00
 2020 143    38       0   22385  182540       0  182540  182540     0.0    0.00  2238.5 18254.0    0.00 18254.0 18254.0    0.00
 2020 144    39       0   22383  182531       0  182531  182531     0.0    0.00  2238.3 18253.1    0.00 18253.1 18253.1    0.00
 2020 145    40       0   22382  182521       0  182521  182521     0.0    0.00  2238.2 18252.1    0.00 18252.1 18252.1    0.00
 2020 146    41       0   22381  182512       0  182512  182512     0.0    0.00  2238.1 18251.1    0.00 18251.1 18251.1    0.00
 2020 147    42       0   22380  182502       0  182502  182502     0.0    0.00  2238.0 18250.2    0.00 18250.2 18250.2    0.00
 2020 148    43       0   22378  182494       0  182494  182494     0.0    0.00  2237.8 18249.4    0.00 18249.4 18249.4    0.00
 2020 149    44       0   22377  182485       0  182485  182485     0.0    0.00  2237.7 18248.5    0.00 18248.5 18248.5    0.00
 2020 150    45       0   22376  182476       0  182476  182476     0.0    0.00  2237.6 18247.6    0.00 18247.6 18247.6    0.00
 2020 151    46       0   22375  182468       0  182468  182468     0.0    0.00  2237.5 18246.8    0.00 18246.8 18246.8    0.00
 2020 152    47       0   22374  182458       0  182458  182458     0.0    0.00  2237.4 18245.8    0.00 18245.8 18245.8    0.00
 2020 153    48       0   22372  182447       0  182447  182447     0.0    0.00  2237.2 18244.7    0.00 18244.7 18244.7    0.00
 2020 154    49       0   22370  182435       0  182435  182435     0.0    0.00  2237.0 18243.5    0.00 18243.5 18243.5    0.00
 2020 155    50       0   22369  182423       0  182423  182423     0.0    0.00  2236.9 18242.3    0.00 18242.3 18242.3    0.00
 2020 156    51       0   22367  182410       0  182410  182410     0.0    0.00  2236.7 18241.0    0.00 18241.0 18241.0    0.00
 2020 157    52       0   22365  182398       0  182398  182398     0.0    0.00  2236.5 18239.8    0.00 18239.8 18239.8    0.00
 2020 158    53       0   22363  182384       0  182384  182384     0.0    0.00  2236.3 18238.4    0.00 18238.4 18238.4    0.00
 2020 159    54       0   22361  182371       0  182371  182371     0.0    0.00  2236.1 18237.1    0.00 18237.1 18237.1    0.00
 2020 160    55       0   22360  182358       0  182358  182358     0.0    0.00  2236.0 18235.8    0.00 18235.8 18235.8    0.00
 2020 161    56       0   22358  182345       0  182345  182345     0.0    0.00  2235.8 18234.5    0.00 18234.5 18234.5    0.00
 2020 162    57       0   22356  182332       0  182332  182332     0.0    0.00  2235.6 18233.2    0.00 18233.2 18233.2    0.00
 2020 163    58       0   22354  182321       0  182321  182321     0.0    0.00  2235.4 18232.1    0.00 18232.1 18232.0    0.00
 2020 164    59       0   22353  182310       0  182310  182310     0.1    0.00  2235.3 18231.0    0.00 18231.0 18231.0    0.00
 2020 165    60       0   22351  182301       0  182301  182300     0.2    0.00  2235.1 18230.1    0.00 18230.1 18230.0    0.01
 2020 166    61       0   22350  182291       0  182291  182291     0.3    0.00  2235.0 18229.1    0.00 18229.1 18229.1    0.01
 2020 167    62       0   22349  182281       0  182281  182281     0.4    0.00  2234.9 18228.1    0.00 18228.1 18228.1    0.01
 2020 168    63       0   22348  182271       0  182271  182270     0.6    0.00  2234.8 18227.0    0.00 18227.0 18227.0    0.02
 2020 169    64       0   22347  182260       0  182260  182260     0.8    0.00  2234.6 18226.0    0.00 18226.0 18226.0    0.02
 2020 170    65       0   22345  182248       0  182248  182247     1.0    0.00  2234.5 18224.7    0.00 18224.7 18224.7    0.03
 2020 171    66       0   22343  182235       0  182235  182234     1.3    0.00  2234.3 18223.4    0.00 18223.4 18223.4    0.04
 2020 172    67       0   22341  182224       0  182224  182222     1.7    0.00  2234.1 18222.2    0.00 18222.2 18222.2    0.06
 2020 173    68       0   22340  182213       0  182213  182210     2.2    0.00  2234.0 18221.1    0.00 18221.1 18221.0    0.07
 2020 174    69       0   22338  182202       0  182202  182199     2.7    0.00  2233.8 18220.0    0.00 18220.0 18219.9    0.08
 2020 175    70       0   22337  182191       0  182191  182188     3.3    0.00  2233.7 18218.9    0.00 18218.9 18218.8    0.10
 2020 176    71       0   22335  182182       0  182182  182178     4.0    0.00  2233.5 18217.9    0.00 18217.9 18217.8    0.12
 2020 177    72       0   22334  182171       0  182171  182166     4.9    0.00  2233.4 18216.8    0.00 18216.8 18216.6    0.15
 2020 178    73       0   22333  182161       0  182161  182155     5.8    0.00  2233.3 18215.7    0.00 18215.7 18215.5    0.18
 2020 179    74       0   22332  182151       0  182151  182144     6.8    0.00  2233.2 18214.6    0.00 18214.6 18214.4    0.21
 2020 180    75       0   22331  182141       0  182141  182133     8.1    0.00  2233.1 18213.5    0.00 18213.5 18213.3    0.25
 2020 181    76       0   22330  182132       0  182132  182122     9.4    0.00  2233.0 18212.5    0.00 18212.5 18212.2    0.29
 2020 182    77       0   22329  182123       0  182123  182112    10.8    0.00  2232.9 18211.5    0.00 18211.5 18211.2    0.34
 2020 183    78       0   22328  182114       0  182114  182102    12.4    0.00  2232.8 18210.6    0.00 18210.6 18210.2    0.38
 2020 184    79       0   22327  182107       0  182107  182093    14.2    0.00  2232.7 18209.7    0.00 18209.7 18209.2    0.43
 2020 185    80       0   22326  182095       0  182095  182080    15.7    0.00  2232.6 18208.4    0.00 18208.4 18207.9    0.47
 2020 186    81       0   22324  182084       0  182084  182067    17.3    0.00  2232.4 18207.1    0.00 18207.1 18206.6    0.51
 2020 187    82       0   22322  182073       0  182073  182054    19.0    0.00  2232.2 18205.9    0.00 18205.9 18205.4    0.56
 2020 188    83       0   22320  182063       0  182063  182042    20.9    0.00  2232.0 18204.8    0.00 18204.8 18204.1    0.60
 2020 189    84       0   22319  182053       0  182053  182030    22.9    0.00  2231.9 18203.6    0.00 18203.6 18203.0    0.65
 2020 190    85       0   22317  182044       0  182044  182019    25.1    0.00  2231.7 18202.5    0.00 18202.5 18201.8    0.70
 2020 191    86       0   22316  182035       0  182035  182008    27.5    0.00  2231.6 18201.4    0.00 18201.4 18200.7    0.75
 2020 192    87       0   22314  182027       0  182027  181997    30.2    0.00  2231.4 18200.4    0.00 18200.4 18199.6    0.81
 2020 193    88       0   22313  182020       0  182020  181987    33.0    0.00  2231.3 18199.4    0.00 18199.4 18198.5    0.87
 2020 194    89       0   22312  182012       0  182012  181977    35.9    0.00  2231.2 18198.5    0.00 18198.5 18197.5    0.93
 2020 195    90       0   22311  182006       0  182006  181967    38.8    0.00  2231.0 18197.5    0.00 18197.5 18196.6    0.99
 2020 196    91       0   22310  182000       0  182000  181958    41.8    0.00  2230.9 18196.7    0.00 18196.7 18195.7    1.05
 2020 197    92       0   22308  181990       0  181990  181947    43.8    0.00  2230.8 18195.6    0.00 18195.6 18194.5    1.12
 2020 198    93       0   22307  181981       0  181981  181935    45.5    0.00  2230.6 18194.5    0.00 18194.5 18193.3    1.18
 2020 199    94       0   22305  181972       0  181972  181924    47.4    0.00  2230.5 18193.4    0.00 18193.4 18192.2    1.24
 2020 200    95       0   22304  181962       0  181962  181913    49.4    0.00  2230.3 18192.3    0.00 18192.3 18191.0    1.31
 2020 201    96       0   22302  181953       0  181953  181902    51.5    0.00  2230.2 18191.2    0.00 18191.2 18189.9    1.37
 2020 202    97       0   22301  181944       0  181944  181891    53.6    0.00  2230.0 18190.2    0.00 18190.2 18188.7    1.43
 2020 203    98       0   22299  181935       0  181935  181879    55.8    0.00  2229.8 18189.1    0.00 18189.1 18187.6    1.49
 2020 204    99       0   22297  181927       0  181927  181868    58.2    0.00  2229.7 18188.0    0.00 18188.0 18186.4    1.56
 2020 205   100       0   22296  181919       0  181919  181858    60.9    0.00  2229.5 18186.9    0.00 18186.9 18185.3    1.62
 2020 206   101       0   22294  181911       0  181911  181847    63.8    0.00  2229.4 18185.9    0.00 18185.9 18184.2    1.69
 2020 207   102       0   22293  181903       0  181903  181837    66.8    0.00  2229.2 18184.9    0.00 18184.9 18183.2    1.76
 2020 208   103       0   22291  181896       0  181896  181826    70.0    0.00  2229.1 18183.9    0.00 18183.9 18182.1    1.83
 2020 209   104       0   22290  181887       0  181887  181815    72.6    0.00  2228.9 18182.8    0.00 18182.8 18180.9    1.90
 2020 210   105       0   22288  181879       0  181879  181804    75.2    0.00  2228.7 18181.8    0.00 18181.8 18179.8    1.97
 2020 211   106       0   22287  181871       0  181871  181794    77.8    0.00  2228.6 18180.8    0.00 18180.8 18178.7    2.04
 2020 212   107       0   22285  181864       0  181864  181783    80.4    0.00  2228.4 18179.8    0.00 18179.8 18177.7    2.11
 2020 213   108       0   22284  181857       0  181857  181774    83.2    0.00  2228.3 18178.9    0.00 18178.9 18176.7    2.18
 2020 214   109       0   22283  181851       0  181851  181765    86.1    0.00  2228.2 18178.0    0.00 18178.0 18175.8    2.25
 2020 215   110       0   22281  181845       0  181845  181756    88.9    0.00  2228.0 18177.1    0.00 18177.1 18174.8    2.33
 2020 216   111       0   22280  181838       0  181838  181747    91.7    0.00  2227.9 18176.2    0.00 18176.2 18173.8    2.40
 2020 217   112       0   22279  181832       0  181832  181738    94.6    0.00  2227.8 18175.4    0.00 18175.4 18172.9    2.48
 2020 218   113       0   22278  181826       0  181826  181729    97.4    0.00  2227.6 18174.5    0.00 18174.5 18172.0    2.55
 2020 219   114       0   22276  181820       0  181820  181720   100.2    0.00  2227.5 18173.7    0.00 18173.7 18171.1    2.63
 2020 220   115       0   22275  181814       0  181814  181711   103.0    0.00  2227.4 18172.9    0.00 18172.9 18170.2    2.71
 2020 221   116       0   22274  181808       0  181808  181703   105.6    0.00  2227.2 18172.0    0.00 18172.0 18169.2    2.78
 2020 222   117       0   22272  181801       0  181801  181693   108.0    0.00  2227.1 18171.1    0.00 18171.1 18168.3    2.86
 2020 223   118       0   22271  181794       0  181794  181683   110.5    0.00  2226.9 18170.2    0.00 18170.2 18167.3    2.93
 2020 224   119       0   22269  181787       0  181787  181674   113.1    0.00  2226.8 18169.2    0.00 18169.2 18166.2    3.01
 2020 225   120       0   22268  181779       0  181779  181664   115.6    0.00  2226.6 18168.3    0.00 18168.3 18165.2    3.09
 2020 226   121       0   22266  181770       0  181770  181653   116.7    0.00  2226.5 18167.2    0.00 18167.2 18164.1    3.16
 2020 227   122       0   22265  181760       0  181760  181642   117.2    0.00  2226.3 18166.2    0.00 18166.2 18162.9    3.23
 2020 228   123       0   22263  181750       0  181750  181632   117.8    0.00  2226.1 18165.1    0.00 18165.1 18161.8    3.30
 2020 229   124       0   22262  181740       0  181740  181621   118.6    0.00  2226.0 18164.1    0.00 18164.1 18160.7    3.36
 2020 230   125       0   22260  181731       0  181731  181611   119.5    0.00  2225.8 18163.0    0.00 18163.0 18159.6    3.43
 2020 231   126       0   22259  181721       0  181721  181600   120.6    0.00  2225.7 18162.0    0.00 18162.0 18158.5    3.49
 2020 232   127       0   22258  181712       0  181712  181590   121.8    0.00  2225.5 18160.9    0.00 18160.9 18157.4    3.55
 2020 233   128       0   22256  181703       0  181703  181580   123.1    0.00  2225.4 18159.9    0.00 18159.9 18156.3    3.61
 2020 234   129       0   22255  181694       0  181694  181570   124.6    0.00  2225.2 18158.9    0.00 18158.9 18155.2    3.68
 2020 235   130       0   22253  181685       0  181685  181559   126.1    0.00  2225.1 18157.9    0.00 18157.9 18154.2    3.74
 2020 236   131       0   22252  181677       0  181677  181549   127.7    0.00  2224.9 18156.9    0.00 18156.9 18153.1    3.80
 2020 237   132       0   22251  181669       0  181669  181539   129.4    0.00  2224.8 18155.9    0.00 18155.9 18152.0    3.87
 2020 238   133       0   22249  181660       0  181660  181529   131.1    0.00  2224.7 18154.9    0.00 18154.9 18151.0    3.93
 2020 239   134       0   22248  181652       0  181652  181519   132.9    0.00  2224.5 18153.9    0.00 18153.9 18149.9    4.00
 2020 240   135       0   22247  181644       0  181644  181509   134.7    0.00  2224.4 18153.0    0.00 18153.0 18148.9    4.07
 2020 241   136       0   22245  181636       0  181636  181500   136.5    0.00  2224.3 18152.0    0.00 18152.0 18147.9    4.13
 2020 242   137       0   22244  181624       0  181624  181488   136.3    0.00  2224.1 18150.8    0.00 18150.8 18146.6    4.18
 2020 243   138       0   22242  181613       0  181613  181477   136.2    0.00  2223.9 18149.7    0.00 18149.7 18145.4    4.23
 2020 244   139       0   22241  181601       0  181601  181466   135.6    0.00  2223.8 18148.5    0.00 18148.5 18144.2    4.26
 2020 245   140       0   22239  181590       0  181590  181455   135.4    0.00  2223.6 18147.4    0.00 18147.4 18143.1    4.30
 2020 246   141       0   22238  181581       0  181581  181445   135.7    0.00  2223.5 18146.4    0.00 18146.4 18142.1    4.34
 2020 247   142       0   22237  181572       0  181572  181436   136.3    0.00  2223.4 18145.5    0.00 18145.5 18141.1    4.39
 2020 248   143       0   22236  181563       0  181563  181426   136.8    0.00  2223.3 18144.5    0.00 18144.5 18140.0    4.43
 2020 249   144       0   22234  181554       0  181554  181417   137.5    0.00  2223.1 18143.5    0.00 18143.5 18139.0    4.48
 2020 250   145       0   22233  181545       0  181545  181407   138.0    0.00  2223.0 18142.5    0.00 18142.5 18138.0    4.52
 2020 251   146       0   22232  181535       0  181535  181396   138.3    0.00  2222.9 18141.4    0.00 18141.4 18136.9    4.56
 2020 252   147       0   22231  181524       0  181524  181386   138.6    0.00  2222.7 18140.3    0.00 18140.3 18135.8    4.59
 2020 253   148       0   22229  181514       0  181514  181375   139.1    0.00  2222.6 18139.3    0.00 18139.3 18134.7    4.63
 2020 254   149       0   22228  181507       0  181507  181367   140.2    0.00  2222.5 18138.5    0.00 18138.5 18133.8    4.68
 2020 255   150       0   22227  181502       0  181502  181360   141.9    0.00  2222.4 18137.8    0.00 18137.8 18133.0    4.74
 2020 256   151       0   22227  181498       0  181498  181354   143.9    0.00  2222.3 18137.2    0.00 18137.2 18132.4    4.81
 2020 257   152       0   22226  181495       0  181495  181349   146.2    0.00  2222.3 18136.7    0.00 18136.7 18131.8    4.88
 2020 258   153       0   22225  181490       0  181490  181342   147.9    0.00  2222.2 18136.1    0.00 18136.1 18131.1    4.94
 2020 259   154       0   22224  181483       0  181483  181334   148.8    0.00  2222.1 18135.3    0.00 18135.3 18130.3    4.99
 2020 260   155       0   22223  181475       0  181475  181325   149.2    0.00  2222.0 18134.4    0.00 18134.4 18129.3    5.02
 2020 261   156       0   22222  181466       0  181466  181316   149.4    0.00  2221.8 18133.4    0.00 18133.4 18128.4    5.06
 2020 262   157       0   22221  181457       0  181457  181307   149.8    0.00  2221.7 18132.5    0.00 18132.5 18127.4    5.10
 2020 263   158       0   22220  181448       0  181448  181298   150.2    0.00  2221.6 18131.6    0.00 18131.6 18126.5    5.14
 2020 264   159       0   22219  181440       0  181440  181289   150.7    0.00  2221.5 18130.7    0.00 18130.7 18125.5    5.17
 2020 265   160       0   22218  181431       0  181431  181280   151.2    0.00  2221.4 18129.8    0.00 18129.8 18124.6    5.21
 2020 266   161       0   22217  181423       0  181423  181271   151.7    0.00  2221.3 18128.8    0.00 18128.8 18123.6    5.25
 2020 267   162       0   22216  181414       0  181414  181262   152.1    0.00  2221.2 18127.9    0.00 18127.9 18122.6    5.28
 2020 268   163       0   22214  181405       0  181405  181252   152.5    0.00  2221.0 18126.9    0.00 18126.9 18121.6    5.32
 2020 269   164       0   22213  181396       0  181396  181243   152.8    0.00  2220.9 18125.9    0.00 18125.9 18120.6    5.35
 2020 270   165       0   22212  181386       0  181386  181233   153.0    0.00  2220.8 18124.9    0.00 18124.9 18119.5    5.37
 2020 271   166       0   22211  181376       0  181376  181222   153.1    0.00  2220.7 18123.8    0.00 18123.8 18118.4    5.40
 2020 272   167       0   22210  181361       0  181361  181213   148.9    0.00  2220.5 18122.7    0.00 18122.7 18117.4    5.31
 2020 273   168       0   22209  181348       0  181348  181203   145.2    0.00  2220.4 18121.6    0.00 18121.6 18116.4    5.23
 2020 274   169       0   22208  181336       0  181336  181194   141.8    0.00  2220.3 18120.6    0.00 18120.6 18115.5    5.15
 2020 275   170       0   22207  181325       0  181325  181186   138.9    0.00  2220.2 18119.7    0.00 18119.7 18114.6    5.08
 2020 276   171       0   22206  181315       0  181315  181178   136.4    0.00  2220.1 18118.8    0.00 18118.8 18113.8    5.02
 2020 277   172       0   22205  181304       0  181304  181171   133.9    0.00  2220.1 18118.0    0.00 18118.0 18113.0    4.96
