*Soil Carbon Balance

*DSSAT Cropping System Model Ver. 4.7.5.035 -develop  JUN 11, 2021 16:21:59

*RUN   1        : 20 IRRIG, PETPEN NO KCB.. MZCER047 KSRT2001    1
 MODEL          : MZCER047 - Maize
 EXPERIMENT     : KSRT2001 SB ARM 2020 KS, IRRIGATED & NON-IRRIGATED
 DATA PATH      :
 TREATMENT  1   : 20 IRRIG, PETPEN NO KCB.. MZCER047
  

!                                                 Initial               Final
!                                                Year/DOY            Year/DOY
!                                                2020-105            2020-105
! SOIL C BALANCE                                 --------- kg[C]/ha ---------
!  SOIL & SURFACE ORGANIC C
!   Soil Organic C                              182825.00           181171.16
!   Surface Organic C                                0.00                0.00
!   Soil Litter C                                    0.00              139.46
!   Surface Litter C                                 0.00                0.00
!                                                --------            --------
!   Total C in Soil and Surface Layers          182825.00           181310.61
!  ADDITIONS AND REMOVALS:
!   C in Harvest Residues from Previous              0.00
!   C from Organic Applications                      0.00
!   C in returned senesced material                428.95
!   CO2-C emitted                                                     1943.30
!                                                --------            --------
! TOTAL C BALANCE                               183253.95           183253.91
!   Balance                                                            -0.041

*DSSAT Cropping System Model Ver. 4.7.5.035 -develop  JUN 11, 2021 16:21:59

*RUN   2        : 20 IRRIG, PETPEN KCB..... MZCER047 KSRT2001    2
 MODEL          : MZCER047 - Maize
 EXPERIMENT     : KSRT2001 SB ARM 2020 KS, IRRIGATED & NON-IRRIGATED
 DATA PATH      :
 TREATMENT  2   : 20 IRRIG, PETPEN KCB..... MZCER047
  

!                                                 Initial               Final
!                                                Year/DOY            Year/DOY
!                                                2020-105            2020-105
! SOIL C BALANCE                                 --------- kg[C]/ha ---------
!  SOIL & SURFACE ORGANIC C
!   Soil Organic C                              182825.00           181132.08
!   Surface Organic C                                0.00                0.00
!   Soil Litter C                                    0.00               15.84
!   Surface Litter C                                 0.00                0.00
!                                                --------            --------
!   Total C in Soil and Surface Layers          182825.00           181147.91
!  ADDITIONS AND REMOVALS:
!   C in Harvest Residues from Previous              0.00
!   C from Organic Applications                      0.00
!   C in returned senesced material                 37.00
!   CO2-C emitted                                                     1714.08
!                                                --------            --------
! TOTAL C BALANCE                               182862.00           182861.98
!   Balance                                                            -0.013

*DSSAT Cropping System Model Ver. 4.7.5.035 -develop  JUN 11, 2021 16:21:59

*RUN   3        : 20 IRRIG, ASCE SHORT..... MZCER047 KSRT2001    3
 MODEL          : MZCER047 - Maize
 EXPERIMENT     : KSRT2001 SB ARM 2020 KS, IRRIGATED & NON-IRRIGATED
 DATA PATH      :
 TREATMENT  3   : 20 IRRIG, ASCE SHORT..... MZCER047
  

!                                                 Initial               Final
!                                                Year/DOY            Year/DOY
!                                                2020-105            2020-105
! SOIL C BALANCE                                 --------- kg[C]/ha ---------
!  SOIL & SURFACE ORGANIC C
!   Soil Organic C                              182825.00           181170.52
!   Surface Organic C                                0.00                0.00
!   Soil Litter C                                    0.00              133.94
!   Surface Litter C                                 0.00                0.00
!                                                --------            --------
!   Total C in Soil and Surface Layers          182825.00           181304.45
!  ADDITIONS AND REMOVALS:
!   C in Harvest Residues from Previous              0.00
!   C from Organic Applications                      0.00
!   C in returned senesced material                426.94
!   CO2-C emitted                                                     1947.46
!                                                --------            --------
! TOTAL C BALANCE                               183251.94           183251.92
!   Balance                                                            -0.025
