*Soil Inorganic Nitrogen daily output file

*DSSAT Cropping System Model Ver. 4.7.5.035 -develop  JUN 14, 2021 09:08:55

*RUN   1        : 20 IRRIG, PETPEN NO KCB.. MZCER047 KSRT2001    1
 MODEL          : MZCER047 - Maize
 EXPERIMENT     : KSRT2001 SB ARM 2020 KS, IRRIGATED
 DATA PATH      :
 TREATMENT  1   : 20 IRRIG, PETPEN NO KCB.. MZCER047
  
!                                                                                                                                      NO3 (ppm) at soil dep. (cm):                                    NH4 (ppm) at soil dep. (cm):                                    Total Inorganic N @dep(ppm):
!                                                                                                                                       0-5    5-15   15-29   29-43   43-53   53-64  64-132 132-201     0-5    5-15   15-29   29-43   43-53   53-64  64-132 132-201     0-5    5-15   15-29   29-43   43-53   53-64  64-132 132-201
@YEAR DOY   DAS  NAPC  NI#M    NIAD    NITD    NHTD   NURTD    NMNC    NITC    NDNC    NIMC    AMLC   NNMNC    NUCM    NLCC    TDNC    NI1D    NI2D    NI3D    NI4D    NI5D    NI6D    NI7D    NI8D    NH1D    NH2D    NH3D    NH4D    NH5D    NH6D    NH7D    NH8D    NT1D    NT2D    NT3D    NT4D    NT5D    NT6D    NT7D    NT8D    
 2020 105     0     0     0    22.1    19.6     2.5     0.0    0.00    0.00    0.00    0.00    0.00    0.00    0.00    0.00    0.00    0.80     0.8     0.8    0.80    0.80    0.80    0.80    0.80    0.10    0.10    0.10    0.10    0.10    0.10    0.10    0.10    0.90    0.90    0.90    0.90    0.90    0.90    0.90    0.90
 2020 106     1     0     0    22.6    20.2     2.4     0.0    0.55    0.64    0.00    0.00    0.00    0.55    0.00    0.00    0.00    0.83     0.8     0.8    0.83    0.83    0.83    0.83    0.83    0.14    0.14    0.12    0.12    0.10    0.10    0.09    0.09    0.96    0.96    0.95    0.95    0.92    0.92    0.91    0.91
 2020 107     2     0     0    23.2    20.9     2.3     0.0    1.11    1.26    0.00    0.00    0.00    1.11    0.00    0.00    0.00    0.88     0.9     0.9    0.86    0.85    0.85    0.85    0.85    0.16    0.16    0.14    0.14    0.09    0.09    0.08    0.08    1.04    1.02    0.99    0.99    0.94    0.94    0.93    0.93
 2020 108     3     0     0    23.7    21.5     2.2     0.0    1.66    1.86    0.00    0.00    0.00    1.66    0.00    0.00    0.00    0.93     0.9     0.9    0.89    0.87    0.87    0.87    0.87    0.18    0.18    0.15    0.15    0.09    0.09    0.07    0.07    1.11    1.08    1.04    1.04    0.96    0.96    0.94    0.94
 2020 109     4     0     0    24.2    22.0     2.2     0.0    2.18    2.42    0.00    0.00    0.00    2.18    0.00    0.00    0.00    0.99     0.9     0.9    0.93    0.89    0.89    0.89    0.89    0.20    0.19    0.15    0.15    0.09    0.09    0.07    0.07    1.19    1.13    1.08    1.08    0.98    0.98    0.95    0.96
 2020 110     5     0     0    24.8    22.6     2.2     0.0    2.73    3.00    0.00    0.00    0.00    2.73    0.00    0.00    0.00    1.06     1.0     1.0    0.97    0.92    0.92    0.90    0.91    0.21    0.21    0.16    0.16    0.09    0.09    0.06    0.06    1.26    1.18    1.12    1.13    1.00    1.00    0.97    0.97
 2020 111     6     0     0    25.4    23.2     2.2     0.0    3.32    3.60    0.00    0.00    0.00    3.32    0.00    0.00    0.00    1.13     1.0     1.0    1.01    0.94    0.94    0.92    0.92    0.22    0.22    0.17    0.17    0.08    0.08    0.06    0.06    1.35    1.25    1.17    1.17    1.02    1.02    0.98    0.98
 2020 112     7     0     0    26.0    23.8     2.2     0.0    3.95    4.23    0.00    0.00    0.00    3.95    0.00    0.00    0.00    1.21     1.1     1.1    1.06    0.96    0.96    0.94    0.94    0.22    0.22    0.17    0.17    0.08    0.08    0.06    0.06    1.44    1.31    1.23    1.23    1.05    1.05    1.00    1.00
 2020 113     8     0     0    26.6    24.5     2.2     0.0    4.59    4.88    0.00    0.00    0.00    4.59    0.00    0.00    0.00    1.30     1.2     1.1    1.11    0.99    0.99    0.95    0.96    0.23    0.23    0.17    0.17    0.08    0.08    0.06    0.06    1.53    1.38    1.28    1.28    1.07    1.07    1.01    1.01
 2020 114     9     0     0    27.3    25.2     2.2     0.0    5.28    5.57    0.00    0.00    0.00    5.28    0.00    0.00    0.00    1.40     1.2     1.2    1.16    1.01    1.01    0.97    0.98    0.23    0.23    0.18    0.18    0.08    0.08    0.06    0.06    1.63    1.45    1.34    1.34    1.10    1.10    1.03    1.03
 2020 115    10     0     0    28.0    25.9     2.2     0.0    6.00    6.30    0.00    0.00    0.00    6.00    0.00    0.00    0.00    1.50     1.3     1.2    1.22    1.04    1.04    0.99    0.99    0.23    0.23    0.18    0.18    0.08    0.08    0.05    0.05    1.74    1.53    1.40    1.40    1.12    1.12    1.04    1.05
 2020 116    11     0     0    28.7    26.6     2.1     0.0    6.69    7.00    0.00    0.00    0.00    6.69    0.00    0.00    0.00    1.60     1.4     1.3    1.28    1.07    1.07    1.01    1.01    0.24    0.24    0.18    0.18    0.08    0.08    0.05    0.05    1.84    1.61    1.46    1.46    1.15    1.15    1.06    1.06
 2020 117    12     0     0    29.4    27.3     2.1     0.0    7.36    7.67    0.00    0.00    0.00    7.36    0.00    0.00    0.00    1.70     1.4     1.3    1.34    1.09    1.09    1.02    1.03    0.24    0.24    0.18    0.18    0.08    0.08    0.05    0.05    1.94    1.68    1.52    1.52    1.18    1.18    1.08    1.08
 2020 118    13     0     0    30.1    28.0     2.1     0.0    8.10    8.41    0.00    0.00    0.00    8.10    0.00    0.00    0.00    1.82     1.5     1.4    1.40    1.12    1.12    1.04    1.04    0.24    0.24    0.18    0.18    0.08    0.08    0.05    0.05    2.05    1.76    1.58    1.58    1.20    1.20    1.09    1.10
 2020 119    14     0     0    30.9    28.8     2.1     0.0    8.90    9.23    0.00    0.00    0.00    8.90    0.00    0.00    0.00    1.94     1.6     1.5    1.47    1.15    1.15    1.06    1.06    0.24    0.23    0.18    0.18    0.08    0.08    0.05    0.05    2.18    1.84    1.65    1.65    1.24    1.23    1.11    1.11
 2020 120    15     0     0    31.8    29.6     2.1     0.0    9.73   10.06    0.00    0.00    0.00    9.73    0.00    0.00    0.00    2.06     1.7     1.5    1.54    1.19    1.18    1.08    1.08    0.25    0.23    0.18    0.18    0.08    0.08    0.05    0.05    2.31    1.94    1.72    1.72    1.27    1.27    1.13    1.13
 2020 121    16     0     0    32.6    30.5     2.1     0.0   10.60   10.95    0.00    0.00    0.00   10.60    0.00    0.00    0.00    2.19     1.8     1.6    1.62    1.22    1.22    1.10    1.10    0.26    0.23    0.17    0.18    0.08    0.08    0.05    0.05    2.44    2.03    1.80    1.80    1.30    1.30    1.15    1.15
 2020 122    17     0     0    33.6    31.5     2.1     0.0   11.56   11.94    0.00    0.00    0.00   11.56    0.00    0.00    0.00    2.33     1.9     1.7    1.71    1.26    1.26    1.12    1.12    0.27    0.22    0.17    0.17    0.08    0.08    0.05    0.05    2.60    2.14    1.89    1.88    1.34    1.33    1.17    1.17
 2020 123    18     0     0    34.6    32.6     2.0     0.0   12.57   13.00    0.00    0.00    0.00   12.57    0.00    0.00    0.00    2.48     2.0     1.8    1.80    1.30    1.30    1.15    1.14    0.27    0.21    0.16    0.17    0.08    0.08    0.05    0.05    2.76    2.26    1.98    1.97    1.38    1.37    1.20    1.19
 2020 124    19     0     0    35.6    33.6     2.0     0.0   13.56   13.99    0.00    0.00    0.00   13.56    0.00    0.00    0.00    2.63     2.2     1.9    1.89    1.34    1.33    1.17    1.16    0.29    0.21    0.16    0.16    0.07    0.08    0.05    0.05    2.92    2.37    2.06    2.06    1.41    1.41    1.22    1.21
 2020 125    20     0     0    36.6    34.5     2.0     0.0   14.54   14.96    0.00    0.00    0.00   14.54    0.00    0.00    0.00    2.77     2.3     2.0    1.98    1.38    1.37    1.19    1.18    0.30    0.21    0.16    0.16    0.07    0.08    0.05    0.05    3.08    2.48    2.15    2.14    1.45    1.45    1.24    1.23
 2020 126    21     0     0    37.6    35.5     2.0     0.0   15.53   15.96    0.00    0.00    0.00   15.53    0.00    0.00    0.00    2.92     2.4     2.1    2.07    1.42    1.41    1.21    1.20    0.32    0.21    0.16    0.16    0.07    0.08    0.05    0.05    3.24    2.59    2.24    2.23    1.49    1.49    1.26    1.25
 2020 127    22     0     0    38.5    36.5     2.0     0.0   16.49   16.89    0.00    0.00    0.00   16.49    0.00    0.00    0.00    3.07     2.5     2.2    2.15    1.45    1.45    1.24    1.22    0.33    0.21    0.16    0.16    0.08    0.08    0.05    0.05    3.40    2.69    2.33    2.31    1.53    1.52    1.29    1.28
 2020 128    23     0     0    39.4    37.3     2.1     0.0   17.37   17.73    0.00    0.00    0.00   17.37    0.00    0.00    0.00    3.20     2.6     2.2    2.22    1.49    1.48    1.26    1.24    0.35    0.22    0.17    0.17    0.08    0.08    0.05    0.05    3.55    2.78    2.40    2.39    1.56    1.55    1.31    1.29
 2020 129    24     0     0    40.3    38.1     2.1     0.0   18.26   18.59    0.00    0.00    0.00   18.26    0.00    0.00    0.00    3.33     2.7     2.3    2.29    1.52    1.51    1.28    1.26    0.37    0.22    0.17    0.17    0.08    0.08    0.05    0.05    3.71    2.88    2.48    2.46    1.60    1.59    1.33    1.31
 2020 130    25     0     0    41.1    38.9     2.2     0.0   19.08   19.37    0.00    0.00    0.00   19.08    0.00    0.00    0.00    3.46     2.7     2.4    2.36    1.55    1.54    1.29    1.28    0.39    0.22    0.17    0.17    0.08    0.08    0.05    0.05    3.85    2.96    2.55    2.53    1.63    1.62    1.35    1.33
 2020 131    26     0     0    41.9    39.7     2.2     0.0   19.87   20.13    0.00    0.00    0.00   19.87    0.00    0.00    0.00    3.58     2.8     2.4    2.43    1.58    1.57    1.31    1.30    0.41    0.23    0.17    0.17    0.08    0.08    0.05    0.05    3.99    3.04    2.62    2.60    1.66    1.65    1.36    1.35
 2020 132    27     0     0    42.6    40.4     2.2     0.0   20.60   20.84    0.00    0.00    0.00   20.60    0.00    0.00    0.00    3.70     2.9     2.5    2.49    1.61    1.60    1.33    1.31    0.43    0.23    0.18    0.18    0.08    0.08    0.05    0.05    4.13    3.11    2.68    2.66    1.69    1.68    1.38    1.37
 2020 133    28     0     0    43.2    41.0     2.2     0.0   21.24   21.49    0.00    0.00    0.00   21.24    0.00    0.00    0.00    3.87     2.9     2.6    2.54    1.63    1.62    1.34    1.33    0.39    0.23    0.18    0.18    0.08    0.08    0.05    0.05    4.25    3.17    2.73    2.72    1.71    1.70    1.40    1.38
 2020 134    29     0     0    43.7    41.6     2.2     0.0   21.73   22.00    0.00    0.00    0.00   21.73    0.00    0.00    0.00    3.99     3.0     2.6    2.58    1.65    1.64    1.36    1.34    0.36    0.23    0.18    0.18    0.08    0.08    0.05    0.05    4.36    3.20    2.77    2.76    1.73    1.72    1.41    1.39
 2020 135    30     0     0    44.2    42.1     2.2     0.0   22.22   22.51    0.00    0.00    0.00   22.22    0.00    0.00    0.00    4.12     3.0     2.6    2.62    1.67    1.66    1.37    1.35    0.34    0.23    0.18    0.18    0.08    0.08    0.05    0.05    4.46    3.24    2.81    2.79    1.75    1.74    1.42    1.41
 2020 136    31     0     0    44.7    42.6     2.2     0.0   22.74   23.03    0.00    0.00    0.00   22.74    0.00    0.00    0.00    4.23     3.0     2.7    2.66    1.68    1.68    1.38    1.37    0.33    0.23    0.18    0.18    0.08    0.08    0.05    0.05    4.57    3.28    2.85    2.84    1.76    1.76    1.43    1.42
 2020 137    32     0     0    45.3    43.2     2.2     0.0   23.32   23.61    0.00    0.00    0.00   23.32    0.00    0.00    0.00    4.36     3.1     2.7    2.70    1.71    1.70    1.40    1.38    0.32    0.23    0.18    0.18    0.08    0.08    0.05    0.05    4.68    3.32    2.90    2.88    1.79    1.78    1.45    1.43
 2020 138    33     0     0    46.0    43.9     2.2     0.0   24.01   24.31    0.00    0.00    0.00   24.01    0.00    0.00    0.00    4.53     3.2     2.8    2.76    1.73    1.72    1.41    1.40    0.29    0.24    0.18    0.18    0.08    0.08    0.05    0.05    4.82    3.39    2.95    2.94    1.81    1.80    1.46    1.45
 2020 139    34     0     0    46.8    44.7     2.1     0.0   24.84   25.17    0.00    0.00    0.00   24.84    0.00    0.00    0.00    4.71     3.2     2.8    2.83    1.76    1.75    1.43    1.42    0.26    0.23    0.18    0.18    0.08    0.08    0.05    0.05    4.97    3.47    3.02    3.01    1.84    1.83    1.48    1.47
 2020 140    35     0     0    47.7    45.6     2.1     0.0   25.73   26.11    0.00    0.00    0.00   25.73    0.00    0.00    0.00    4.90     3.3     2.9    2.91    1.80    1.79    1.45    1.44    0.24    0.23    0.17    0.17    0.08    0.08    0.05    0.05    5.14    3.56    3.10    3.09    1.88    1.87    1.50    1.49
 2020 141    36     0     0    48.6    46.6     2.0     0.0   26.65   27.06    0.00    0.00    0.00   26.65    0.00    0.00    0.00    5.08     3.4     3.0    3.00    1.84    1.82    1.47    1.46    0.23    0.22    0.17    0.17    0.08    0.08    0.05    0.05    5.31    3.65    3.18    3.17    1.91    1.90    1.52    1.51
 2020 142    37     0     0    49.6    47.5     2.0     0.0   27.57   27.99    0.00    0.00    0.00   27.57    0.00    0.00    0.00    1.84     5.1     3.2    3.08    1.87    1.86    1.49    1.47    0.22    0.22    0.17    0.17    0.08    0.08    0.05    0.05    2.06    5.32    3.37    3.25    1.95    1.94    1.55    1.53
 2020 143    38     0     0    50.5    48.3     2.2     0.0   28.50   28.80    0.00    0.00    0.00   28.50    0.00    0.00    0.00    1.93     5.1     3.3    3.16    1.91    1.90    1.52    1.49    0.29    0.29    0.17    0.17    0.08    0.08    0.05    0.05    2.22    5.39    3.47    3.33    1.98    1.97    1.57    1.55
 2020 144    39     0     0    51.4    49.3     2.1     0.0   29.43   29.81    0.00    0.00    0.00   29.43    0.00    0.00    0.00    3.26     5.1     3.4    3.09    1.93    1.90    1.52    1.50    0.25    0.25    0.17    0.17    0.08    0.08    0.05    0.05    3.51    5.39    3.52    3.26    2.01    1.98    1.57    1.55
 2020 145    40     0     0    52.4    50.4     2.0     0.0   30.40   30.82    0.00    0.00    0.00   30.40    0.00    0.00    0.00    3.48     5.2     3.4    3.18    1.97    1.94    1.55    1.52    0.23    0.23    0.16    0.17    0.08    0.08    0.05    0.05    3.71    5.48    3.60    3.34    2.05    2.01    1.60    1.57
 2020 146    41     0     0    53.3    51.3     2.0     0.0   31.35   31.80    0.00    0.00    0.00   31.35    0.00    0.00    0.00    3.69     5.3     3.5    3.26    2.01    1.97    1.57    1.54    0.22    0.22    0.16    0.17    0.08    0.08    0.05    0.05    3.91    5.56    3.69    3.43    2.08    2.05    1.62    1.59
 2020 147    42     0     0    54.2    52.2     2.0     0.0   32.25   32.69    0.00    0.00    0.00   32.25    0.00    0.00    0.00    3.89     5.4     3.6    3.34    2.04    2.01    1.59    1.56    0.22    0.22    0.17    0.17    0.08    0.08    0.05    0.05    4.11    5.64    3.77    3.50    2.12    2.08    1.64    1.61
 2020 148    43     0     0    55.1    53.1     2.0     0.0   33.15   33.57    0.00    0.00    0.00   33.15    0.00    0.00    0.00    2.41     5.4     4.4    3.41    2.07    2.04    1.61    1.58    0.22    0.22    0.17    0.17    0.08    0.08    0.05    0.05    2.63    5.61    4.55    3.58    2.15    2.12    1.66    1.63
 2020 149    44     0     0    56.0    53.8     2.2     0.0   34.02   34.30    0.00    0.00    0.00   34.02    0.00    0.00    0.00    3.43     5.1     4.6    3.34    2.09    2.04    1.62    1.59    0.30    0.30    0.17    0.17    0.08    0.08    0.05    0.05    3.72    5.44    4.79    3.51    2.17    2.12    1.67    1.64
 2020 150    45     0     0    56.8    54.7     2.1     0.0   34.87   35.19    0.00    0.00    0.00   34.87    0.00    0.00    0.00    4.81     5.1     4.6    3.29    2.10    2.04    1.62    1.60    0.27    0.27    0.17    0.17    0.08    0.08    0.05    0.05    5.08    5.40    4.76    3.46    2.18    2.11    1.68    1.65
 2020 151    46     0     0    57.7    55.6     2.1     0.0   35.74   36.10    0.00    0.00    0.00   35.74    0.00    0.00    0.00    5.02     5.2     4.7    3.37    2.13    2.07    1.65    1.62    0.24    0.25    0.17    0.17    0.08    0.08    0.05    0.05    5.27    5.48    4.83    3.54    2.21    2.15    1.70    1.67
 2020 152    47     0     0    58.7    56.7     2.0     0.0   36.73   37.17    0.00    0.00    0.00   36.73    0.00    0.00    0.00    5.26     5.3     4.8    3.46    2.18    2.11    1.67    1.64    0.22    0.22    0.16    0.17    0.08    0.08    0.05    0.05    5.48    5.57    4.92    3.62    2.25    2.18    1.72    1.69
 2020 153    48     0     0    59.8    57.8     1.9     0.0   37.81   38.33    0.00    0.00    0.00   37.81    0.00    0.00    0.00    5.50     5.5     4.9    3.56    2.22    2.15    1.69    1.66    0.20    0.21    0.16    0.16    0.07    0.07    0.05    0.05    5.70    5.67    5.01    3.72    2.29    2.23    1.74    1.71
 2020 154    49     0     0    60.9    59.1     1.8     0.0   38.97   39.59    0.00    0.00    0.00   38.97    0.00    0.00    0.00    5.75     5.6     5.0    3.67    2.27    2.20    1.72    1.69    0.18    0.19    0.15    0.15    0.07    0.07    0.05    0.05    5.94    5.79    5.11    3.82    2.34    2.27    1.77    1.74
 2020 155    50     0     0    62.2    60.4     1.7     0.0   40.21   40.92    0.00    0.00    0.00   40.21    0.00    0.00    0.00    6.02     5.7     5.1    3.79    2.32    2.25    1.75    1.71    0.17    0.17    0.14    0.14    0.07    0.07    0.05    0.05    6.19    5.91    5.22    3.93    2.39    2.32    1.80    1.76
 2020 156    51     0     0    63.4    61.8     1.7     0.0   41.49   42.25    0.00    0.00    0.00   41.49    0.00    0.00    0.00    6.28     5.9     5.2    3.91    2.37    2.30    1.78    1.74    0.17    0.17    0.13    0.14    0.06    0.06    0.04    0.05    6.45    6.04    5.33    4.04    2.44    2.37    1.83    1.79
 2020 157    52     0     0    64.7    63.1     1.7     0.0   42.77   43.55    0.00    0.00    0.00   42.77    0.00    0.00    0.00    6.54     6.0     5.3    4.02    2.42    2.35    1.81    1.76    0.17    0.17    0.13    0.13    0.06    0.06    0.04    0.05    6.71    6.17    5.45    4.15    2.49    2.41    1.86    1.81
 2020 158    53     0     0    66.0    64.4     1.7     0.0   44.08   44.88    0.00    0.00    0.00   44.08    0.00    0.00    0.00    4.24     7.0     5.8    4.14    2.48    2.40    1.84    1.79    0.17    0.17    0.13    0.13    0.06    0.06    0.04    0.05    4.41    7.13    5.91    4.27    2.54    2.46    1.89    1.84
 2020 159    54     0     0    67.4    65.5     1.8     0.0   45.40   46.02    0.00    0.00    0.00   45.40    0.00    0.00    0.00    4.38     6.8     6.0    4.26    2.53    2.45    1.87    1.82    0.27    0.27    0.12    0.13    0.06    0.06    0.04    0.05    4.64    7.11    6.16    4.39    2.59    2.51    1.92    1.86
 2020 160    55     0     0    68.7    66.9     1.8     0.0   46.73   47.35    0.00    0.00    0.00   46.73    0.00    0.00    0.00    6.20     6.9     6.1    4.17    2.56    2.45    1.89    1.83    0.17    0.32    0.13    0.13    0.06    0.06    0.04    0.05    6.37    7.19    6.19    4.30    2.62    2.51    1.93    1.87
 2020 161    56     0     0    70.0    68.4     1.6     0.0   48.07   48.89    0.00    0.00    0.00   48.07    0.00    0.00    0.00    5.82     7.0     7.0    4.10    2.58    2.46    1.90    1.84    0.17    0.17    0.13    0.13    0.06    0.06    0.04    0.05    5.99    7.14    7.12    4.23    2.64    2.52    1.94    1.88
 2020 162    57     0     0    71.3    69.4     1.9     0.0   49.32   49.90    0.00    0.00    0.00   49.32    0.00    0.00    0.00    7.03     6.7     7.1    4.10    2.60    2.47    1.92    1.86    0.27    0.28    0.13    0.14    0.06    0.06    0.04    0.05    7.29    6.98    7.27    4.24    2.67    2.53    1.96    1.90
 2020 163    58     0     0    72.3    70.4     1.9     0.0   50.48   50.98    0.00    0.00    0.00   50.48    0.11    0.00    0.00    8.70     6.7     7.1    4.02    2.61    2.46    1.92    1.86    0.20    0.33    0.14    0.14    0.07    0.07    0.04    0.05    8.89    7.05    7.23    4.16    2.68    2.53    1.97    1.91
 2020 164    59     0     0    73.1    71.3     1.8     0.0   51.62   52.23    0.00    0.00    0.00   51.62    0.41    0.00    0.00   10.19     6.8     7.0    3.95    2.62    2.46    1.93    1.87    0.19    0.22    0.14    0.15    0.07    0.07    0.05    0.05   10.38    7.05    7.16    4.09    2.69    2.52    1.98    1.92
 2020 165    60     0     0    73.7    71.9     1.8     0.0   52.75   53.38    0.00    0.00    0.00   52.75    0.98    0.00    0.00   10.14     6.8     7.0    4.04    2.67    2.50    1.96    1.89    0.19    0.20    0.14    0.15    0.07    0.07    0.05    0.05   10.33    6.95    7.18    4.19    2.73    2.57    2.00    1.94
 2020 166    61     0     0    74.0    72.2     1.8     0.0   53.87   54.50    0.00    0.00    0.00   53.87    1.77    0.00    0.00    9.99     6.6     7.0    4.14    2.71    2.54    1.98    1.91    0.18    0.19    0.15    0.15    0.07    0.07    0.05    0.05   10.17    6.79    7.15    4.29    2.78    2.61    2.03    1.96
 2020 167    62     0     0    74.5    72.8     1.7     0.0   55.07   55.79    0.00    0.00    0.00   55.07    2.49    0.00    0.00    5.77     7.5     7.8    4.25    2.76    2.59    2.01    1.94    0.15    0.18    0.14    0.14    0.07    0.07    0.05    0.05    5.91    7.66    7.95    4.40    2.82    2.66    2.06    1.99
 2020 168    63     0     0    74.5    72.7     1.7     0.0   56.22   56.93    0.00    0.00    0.00   56.22    3.67    0.00    0.00    6.85     6.9     7.7    4.23    2.77    2.59    2.02    1.95    0.26    0.28    0.13    0.05    0.06    0.06    0.04    0.05    7.11    7.15    7.87    4.28    2.84    2.65    2.07    1.99
 2020 169    64     0     0    74.2    72.7     1.5     0.0   57.39   58.33    0.00    0.00    0.00   57.39    5.09    0.00    0.00    8.07     6.6     7.4    4.10    2.79    2.59    2.04    1.96    0.17    0.17    0.13    0.04    0.06    0.06    0.04    0.05    8.24    6.81    7.58    4.14    2.85    2.66    2.08    2.00
 2020 170    65     0     0    74.1    72.6     1.5     0.0   58.56   59.51    0.00    0.00    0.00   58.56    6.36    0.00    0.00    7.85     6.4     7.3    4.13    2.84    2.64    2.07    1.98    0.17    0.17    0.13    0.04    0.06    0.06    0.04    0.05    8.02    6.53    7.42    4.17    2.90    2.71    2.11    2.03
 2020 171    66     0     0    73.1    71.6     1.5     0.0   59.68   60.62    0.00    0.00    0.00   59.68    8.49    0.00    0.00    7.29     5.8     6.9    4.14    2.89    2.69    2.09    2.01    0.15    0.17    0.13    0.04    0.06    0.06    0.04    0.05    7.44    5.99    7.08    4.18    2.95    2.75    2.14    2.05
 2020 172    67     0     0    72.7    71.1     1.6     0.0   60.72   61.61    0.00    0.00    0.00   60.72    9.96    0.00    0.00    6.95     5.5     6.7    4.15    2.93    2.73    2.12    2.03    0.15    0.18    0.14    0.04    0.07    0.07    0.04    0.05    7.10    5.66    6.86    4.19    2.99    2.80    2.16    2.08
 2020 173    68     0     0    70.0    68.4     1.6     0.0   61.72   62.59    0.00    0.00    0.00   61.72   13.63    0.00    0.00    5.74     4.5     6.0    4.12    2.97    2.77    2.14    2.05    0.14    0.19    0.14    0.04    0.07    0.07    0.05    0.05    5.88    4.67    6.16    4.17    3.04    2.84    2.19    2.10
 2020 174    69     0     0    68.9    67.3     1.6     0.0   62.69   63.56    0.00    0.00    0.00   62.69   15.71    0.00    0.00    3.25     4.8     5.7    4.10    3.02    2.82    2.17    2.08    0.12    0.18    0.14    0.04    0.07    0.07    0.05    0.05    3.37    5.03    5.87    4.15    3.08    2.88    2.22    2.13
 2020 175    70     0     0    67.0    65.3     1.7     0.0   63.67   64.45    0.00    0.00    0.00   63.67   18.61    0.00    0.00    2.67     4.0     5.1    4.06    3.06    2.86    2.19    2.10    0.22    0.19    0.15    0.04    0.07    0.07    0.05    0.05    2.89    4.17    5.28    4.10    3.13    2.93    2.24    2.15
 2020 176    71     0     0    65.4    63.7     1.7     0.0   64.65   65.43    0.00    0.00    0.00   64.65   21.14    0.00    0.00    2.79     3.4     4.6    3.93    3.07    2.85    2.20    2.11    0.20    0.19    0.15    0.04    0.07    0.07    0.05    0.05    3.00    3.54    4.79    3.97    3.14    2.92    2.25    2.16
 2020 177    72     0     0    62.8    61.2     1.6     0.0   65.70   66.53    0.00    0.00    0.00   65.70   24.80    0.00    0.00    2.07     2.4     3.8    3.85    3.11    2.90    2.23    2.13    0.18    0.18    0.14    0.04    0.07    0.07    0.05    0.05    2.26    2.57    3.98    3.89    3.18    2.97    2.28    2.18
 2020 178    73     0     0    59.9    58.3     1.5     0.0   66.74   67.66    0.00    0.00    0.00   66.74   28.79    0.00    0.00    1.30     1.4     2.9    3.72    3.16    2.95    2.26    2.16    0.15    0.17    0.13    0.04    0.07    0.07    0.05    0.05    1.45    1.61    3.02    3.76    3.23    3.01    2.31    2.21
 2020 179    74     0     0    57.3    55.9     1.5     0.0   67.77   68.76    0.00    0.00    0.00   67.77   32.36    0.00    0.00    0.69     0.7     2.0    3.56    3.21    2.99    2.29    2.18    0.12    0.15    0.11    0.04    0.06    0.07    0.04    0.05    0.82    0.88    2.09    3.60    3.28    3.06    2.33    2.23
 2020 180    75     0     0    55.6    54.3     1.4     0.0   68.78   69.86    0.00    0.00    0.00   68.78   35.05    0.00    0.00    0.59     0.4     1.4    3.41    2.81    3.04    2.32    2.21    0.10    0.13    0.10    0.04    0.06    0.06    0.04    0.05    0.69    0.57    1.48    3.44    2.87    3.11    2.36    2.26
 2020 181    76     0     0    54.5    53.2     1.3     0.0   69.75   70.93    0.00    0.00    0.00   69.75   37.14    0.00    0.00    0.41     0.5     1.0    3.27    2.26    3.10    2.35    2.24    0.09    0.11    0.08    0.04    0.04    0.06    0.04    0.05    0.50    0.59    1.07    3.31    2.30    3.16    2.39    2.28
 2020 182    77     0     0    53.8    52.4     1.3     0.0   70.79   71.89    0.00    0.00    0.00   70.79   38.93    0.00    0.00    0.29     0.4     0.7    3.15    1.83    3.15    2.38    2.26    0.22    0.14    0.07    0.04    0.03    0.06    0.04    0.05    0.51    0.50    0.79    3.18    1.86    3.21    2.42    2.31
 2020 183    78     0     0    53.6    52.3     1.3     0.0   71.80   72.98    0.00    0.00    0.00   71.80   40.09    0.00    0.00    0.51     0.4     0.7    2.97    1.63    3.16    2.40    2.28    0.17    0.11    0.07    0.03    0.03    0.06    0.04    0.05    0.68    0.51    0.76    3.01    1.66    3.22    2.44    2.33
 2020 184    79     0     0    52.5    51.3     1.2     0.0   72.74   73.97    0.00    0.00    0.00   72.74   42.13    0.00    0.00    0.43     0.4     0.5    2.90    1.38    2.57    2.43    2.31    0.16    0.09    0.06    0.03    0.03    0.06    0.04    0.05    0.58    0.45    0.60    2.94    1.41    2.63    2.47    2.35
 2020 185    80     0     0    51.7    50.6     1.1     0.0   73.61   74.91    0.00    0.00    0.00   73.61   43.75    0.00    0.00    0.41     0.3     0.4    2.85    1.20    2.07    2.46    2.33    0.12    0.07    0.06    0.03    0.03    0.04    0.04    0.05    0.53    0.41    0.50    2.88    1.23    2.11    2.50    2.38
 2020 186    81     0     0    51.5    50.4     1.1     0.0   74.42   75.76    0.00    0.00    0.00   74.42   44.83    0.00    0.00    0.47     0.3     0.4    2.81    1.07    1.77    2.49    2.36    0.09    0.07    0.06    0.03    0.03    0.03    0.04    0.05    0.56    0.39    0.44    2.84    1.10    1.80    2.53    2.40
 2020 187    82     0     0    51.5    50.4     1.1     0.0   75.17   76.53    0.00    0.00    0.00   75.17   45.54    0.00    0.00    0.56     0.3     0.4    2.79    0.98    1.58    2.52    2.38    0.08    0.06    0.05    0.03    0.02    0.03    0.04    0.05    0.64    0.37    0.41    2.83    1.01    1.60    2.56    2.43
 2020 188    83     0     0    51.7    50.6     1.1     0.0   75.88   77.23    0.00    0.00    0.00   75.88   46.04    0.00    0.00    0.64     0.3     0.3    2.80    0.91    1.45    2.54    2.41    0.08    0.06    0.05    0.04    0.02    0.03    0.04    0.05    0.72    0.36    0.39    2.84    0.94    1.47    2.59    2.45
 2020 189    84     0     0    52.0    50.9     1.1     0.0   76.56   77.92    0.00    0.00    0.00   76.56   46.41    0.00    0.00    0.71     0.3     0.3    2.83    0.86    1.35    2.57    2.43    0.07    0.05    0.05    0.04    0.02    0.02    0.04    0.05    0.78    0.36    0.37    2.86    0.89    1.37    2.62    2.48
 2020 190    85     0     0    52.3    51.3     1.1     0.0   77.22   78.59    0.00    0.00    0.00   77.22   46.77    0.00    0.00    0.77     0.3     0.3    2.85    0.82    1.28    2.59    2.45    0.07    0.05    0.05    0.04    0.02    0.02    0.05    0.05    0.84    0.37    0.37    2.89    0.85    1.30    2.64    2.50
 2020 191    86     0     0    52.6    51.6     1.0     0.0   77.86   79.27    0.00    0.00    0.00   77.86   47.12    0.00    0.00    0.83     0.3     0.3    2.88    0.79    1.23    2.60    2.48    0.06    0.05    0.04    0.04    0.02    0.02    0.04    0.05    0.89    0.39    0.37    2.91    0.82    1.25    2.65    2.53
 2020 192    87     0     0    52.9    51.9     1.0     0.0   78.49   79.92    0.00    0.00    0.00   78.49   47.46    0.00    0.00    0.88     0.4     0.3    2.90    0.77    1.19    2.61    2.50    0.06    0.05    0.04    0.04    0.02    0.02    0.04    0.05    0.94    0.41    0.38    2.94    0.79    1.21    2.65    2.55
 2020 193    88     0     0    53.2    52.2     1.0     0.0   79.12   80.57    0.00    0.00    0.00   79.12   47.84    0.00    0.00    0.93     0.4     0.3    2.93    0.75    1.17    2.61    2.53    0.06    0.04    0.04    0.03    0.02    0.02    0.04    0.05    0.99    0.44    0.38    2.96    0.77    1.18    2.65    2.58
 2020 194    89     0     0    53.4    52.4     1.0     0.0   79.74   81.21    0.00    0.00    0.00   79.74   48.21    0.00    0.00    0.98     0.4     0.4    2.95    0.74    1.15    2.60    2.55    0.06    0.04    0.04    0.03    0.02    0.02    0.04    0.05    1.04    0.48    0.40    2.99    0.76    1.17    2.64    2.60
 2020 195    90     0     0    53.7    52.7     1.0     0.0   80.36   81.83    0.00    0.00    0.00   80.36   48.58    0.00    0.00    1.02     0.5     0.4    2.98    0.73    1.14    2.60    2.58    0.06    0.04    0.04    0.03    0.02    0.02    0.04    0.05    1.08    0.51    0.41    3.01    0.75    1.15    2.63    2.62
 2020 196    91     0     0    53.9    52.9     1.0     0.0   80.96   82.43    0.00    0.00    0.00   80.96   48.95    0.00    0.00    1.07     0.5     0.4    3.00    0.72    1.13    2.58    2.60    0.06    0.04    0.04    0.04    0.02    0.02    0.04    0.05    1.13    0.55    0.43    3.04    0.74    1.15    2.62    2.65
 2020 197    92     0     0    54.1    53.1     1.0     0.0   81.56   83.02    0.00    0.00    0.00   81.56   49.37    0.00    0.00    1.12     0.5     0.4    3.03    0.72    1.13    2.56    2.62    0.06    0.04    0.04    0.04    0.02    0.02    0.04    0.05    1.19    0.58    0.45    3.06    0.74    1.15    2.60    2.67
 2020 198    93     0     0    54.2    53.2     1.0     0.0   82.13   83.60    0.00    0.00    0.00   82.13   49.80    0.00    0.00    1.18     0.6     0.4    3.05    0.72    1.13    2.54    2.65    0.06    0.05    0.04    0.04    0.02    0.02    0.04    0.05    1.24    0.62    0.47    3.09    0.74    1.15    2.57    2.70
 2020 199    94     0     0    54.3    53.3     1.0     0.0   82.69   84.15    0.00    0.00    0.00   82.69   50.30    0.00    0.00    1.23     0.6     0.5    3.07    0.72    1.14    2.50    2.67    0.06    0.05    0.04    0.04    0.02    0.02    0.04    0.05    1.29    0.65    0.50    3.11    0.74    1.16    2.54    2.72
 2020 200    95     0     0    54.1    53.1     1.0     0.0   83.27   84.72    0.00    0.00    0.00   83.27   51.04    0.00    0.00    1.03     0.6     0.5    3.10    0.72    1.15    2.45    2.69    0.09    0.05    0.04    0.04    0.02    0.02    0.04    0.05    1.12    0.69    0.53    3.13    0.74    1.17    2.49    2.74
 2020 201    96     0     0    53.7    52.7     1.0     0.0   83.89   85.31    0.00    0.00    0.00   83.89   52.06    0.00    0.00    0.50     0.7     0.5    3.12    0.73    1.17    2.40    2.72    0.16    0.05    0.04    0.04    0.02    0.02    0.04    0.05    0.66    0.72    0.56    3.16    0.75    1.18    2.43    2.77
 2020 202    97     0     0    53.5    52.4     1.0     0.0   84.50   85.92    0.00    0.00    0.00   84.50   52.89    0.00    0.00    0.39     0.7     0.5    3.15    0.73    1.18    2.34    2.74    0.16    0.05    0.04    0.04    0.02    0.02    0.03    0.05    0.55    0.76    0.58    3.18    0.75    1.19    2.37    2.79
 2020 203    98     0     0    53.2    52.2     1.0     0.0   85.08   86.55    0.00    0.00    0.00   85.08   53.72    0.00    0.00    0.40     0.7     0.6    3.17    0.74    1.19    2.27    2.76    0.12    0.05    0.04    0.04    0.02    0.02    0.03    0.05    0.52    0.79    0.61    3.21    0.76    1.21    2.30    2.81
 2020 204    99     0     0    52.9    52.0     1.0     0.0   85.64   87.13    0.00    0.00    0.00   85.64   54.55    0.00    0.00    0.44     0.8     0.6    3.19    0.75    1.20    2.20    2.79    0.10    0.05    0.04    0.04    0.02    0.02    0.03    0.05    0.54    0.82    0.64    3.23    0.77    1.22    2.23    2.84
 2020 205   100     0     0    52.8    51.8     0.9     0.0   86.18   87.69    0.00    0.00    0.00   86.18   55.27    0.00    0.00    0.53     0.8     0.6    3.22    0.76    1.21    2.13    2.81    0.09    0.05    0.04    0.04    0.02    0.02    0.03    0.05    0.62    0.85    0.67    3.25    0.78    1.23    2.16    2.86
 2020 206   101     0     0    52.6    51.7     0.9     0.0   86.70   88.22    0.00    0.00    0.00   86.70   55.92    0.00    0.00    0.62     0.8     0.7    3.24    0.77    1.22    2.07    2.83    0.08    0.05    0.04    0.04    0.02    0.02    0.03    0.05    0.70    0.88    0.70    3.28    0.79    1.24    2.10    2.88
 2020 207   102     0     0    52.6    51.7     0.9     0.0   87.22   88.76    0.00    0.00    0.00   87.22   56.47    0.00    0.00    0.70     0.9     0.7    3.26    0.78    1.23    2.02    2.86    0.07    0.05    0.04    0.04    0.02    0.02    0.03    0.05    0.77    0.91    0.73    3.30    0.80    1.25    2.04    2.90
 2020 208   103     0     0    52.6    51.8     0.9     0.0   87.73   89.30    0.00    0.00    0.00   87.73   56.94    0.00    0.00    0.23     1.0     0.9    3.29    0.80    1.25    1.98    2.88    0.07    0.04    0.03    0.04    0.02    0.02    0.02    0.05    0.29    1.00    0.92    3.32    0.81    1.26    2.00    2.93
 2020 209   104     0     0    52.1    50.9     1.1     0.0   88.46   89.78    0.00    0.00    0.00   88.46   58.25    0.00    0.00    0.24     0.5     0.7    3.31    0.81    1.26    1.94    2.90    0.20    0.18    0.05    0.04    0.02    0.02    0.02    0.05    0.44    0.66    0.79    3.35    0.82    1.27    1.97    2.95
 2020 210   105     0     0    51.7    50.4     1.3     0.0   89.21   90.37    0.00    0.00    0.00   89.21   59.33    0.00    0.00    0.31     0.3     0.6    3.32    0.82    1.27    1.91    2.93    0.28    0.26    0.06    0.04    0.02    0.02    0.02    0.05    0.60    0.58    0.63    3.35    0.84    1.29    1.93    2.97
 2020 211   106     0     0    51.6    50.5     1.2     0.0   89.93   91.19    0.00    0.00    0.00   89.93   60.14    0.00    0.00    0.43     0.5     0.5    3.30    0.85    1.30    1.87    2.94    0.21    0.20    0.07    0.04    0.02    0.02    0.02    0.05    0.64    0.66    0.55    3.34    0.86    1.31    1.89    2.99
 2020 212   107     0     0    51.3    50.1     1.2     0.0   90.63   91.85    0.00    0.00    0.00   90.63   61.16    0.00    0.00    0.32     0.4     0.4    3.29    0.87    1.32    1.84    2.96    0.29    0.19    0.07    0.04    0.02    0.02    0.02    0.05    0.61    0.59    0.48    3.33    0.88    1.33    1.86    3.01
 2020 213   108     0     0    51.2    49.9     1.2     0.0   91.30   92.53    0.00    0.00    0.00   91.30   61.98    0.00    0.00    0.45     0.4     0.4    3.25    0.90    1.34    1.81    2.98    0.23    0.20    0.08    0.04    0.02    0.02    0.02    0.05    0.68    0.57    0.48    3.29    0.91    1.36    1.83    3.03
 2020 214   109     0     0    51.0    49.7     1.2     0.0   91.94   93.16    0.00    0.00    0.00   91.94   62.83    0.00    0.00    0.39     0.4     0.3    3.27    0.91    1.35    1.77    3.00    0.22    0.20    0.08    0.04    0.02    0.02    0.02    0.05    0.61    0.57    0.38    3.31    0.92    1.37    1.80    3.05
 2020 215   110     0     0    50.9    49.7     1.2     0.0   92.57   93.82    0.00    0.00    0.00   92.57   63.48    0.00    0.00    0.39     0.4     0.3    3.29    0.92    1.36    1.75    3.02    0.19    0.20    0.08    0.04    0.02    0.02    0.02    0.05    0.58    0.57    0.38    3.33    0.93    1.38    1.77    3.07
 2020 216   111     0     0    50.9    49.7     1.2     0.0   93.18   94.47    0.00    0.00    0.00   93.18   64.12    0.00    0.00    0.37     0.4     0.3    3.31    0.93    1.37    1.72    3.04    0.16    0.18    0.08    0.04    0.02    0.02    0.02    0.05    0.53    0.56    0.38    3.35    0.94    1.39    1.74    3.09
 2020 217   112     0     0    50.9    49.7     1.2     0.0   93.78   95.06    0.00    0.00    0.00   93.78   64.75    0.00    0.00    0.34     0.4     0.3    3.33    0.94    1.38    1.69    3.06    0.19    0.17    0.07    0.04    0.02    0.02    0.02    0.05    0.53    0.53    0.37    3.37    0.95    1.40    1.71    3.11
 2020 218   113     0     0    50.9    49.7     1.2     0.0   94.38   95.67    0.00    0.00    0.00   94.38   65.32    0.00    0.00    0.37     0.4     0.3    3.35    0.95    1.39    1.67    3.09    0.20    0.16    0.07    0.04    0.02    0.02    0.02    0.05    0.57    0.51    0.37    3.39    0.96    1.41    1.69    3.14
 2020 219   114     0     0    50.9    49.8     1.1     0.0   94.95   96.27    0.00    0.00    0.00   94.95   65.90    0.00    0.00    0.31     0.4     0.3    3.37    0.96    1.40    1.64    3.11    0.20    0.14    0.07    0.04    0.02    0.02    0.02    0.05    0.50    0.52    0.37    3.41    0.97    1.42    1.66    3.16
 2020 220   115     0     0    50.9    49.8     1.2     0.0   95.55   96.84    0.00    0.00    0.00   95.55   66.45    0.00    0.00    0.37     0.3     0.3    3.39    0.97    1.41    1.62    3.13    0.20    0.16    0.07    0.04    0.02    0.02    0.02    0.05    0.57    0.49    0.36    3.43    0.98    1.43    1.64    3.18
 2020 221   116     0     0    51.0    49.9     1.1     0.0   96.15   97.45    0.00    0.00    0.00   96.15   66.98    0.00    0.00    0.38     0.3     0.3    3.41    0.98    1.42    1.59    3.15    0.21    0.16    0.07    0.04    0.02    0.02    0.02    0.05    0.59    0.50    0.36    3.45    1.00    1.44    1.61    3.20
 2020 222   117     0     0    51.0    50.0     1.1     0.0   96.75   98.11    0.00    0.00    0.00   96.75   67.53    0.00    0.00    0.40     0.4     0.3    3.43    0.99    1.43    1.57    3.18    0.18    0.14    0.07    0.04    0.02    0.02    0.02    0.05    0.58    0.49    0.36    3.47    1.01    1.45    1.59    3.22
 2020 223   118     0     0    51.1    50.1     1.0     0.0   97.33   98.78    0.00    0.00    0.00   97.33   68.10    0.00    0.00    0.39     0.4     0.3    3.46    1.00    1.44    1.55    3.20    0.14    0.11    0.06    0.04    0.02    0.02    0.02    0.05    0.53    0.46    0.36    3.49    1.02    1.46    1.57    3.25
 2020 224   119     0     0    51.1    50.2     0.9     0.0   97.90   99.40    0.00    0.00    0.00   97.90   68.62    0.00    0.00    0.42     0.3     0.3    3.48    1.01    1.45    1.53    3.22    0.11    0.08    0.06    0.04    0.02    0.02    0.02    0.05    0.53    0.42    0.36    3.52    1.03    1.47    1.55    3.27
 2020 225   120     0     0    51.2    50.3     0.9     0.0   98.45  100.00    0.00    0.00    0.00   98.45   69.05    0.00    0.00    0.51     0.3     0.3    3.51    1.02    1.47    1.51    3.25    0.09    0.07    0.05    0.04    0.02    0.02    0.02    0.05    0.60    0.39    0.35    3.54    1.04    1.48    1.53    3.30
 2020 226   121     0     0    51.4    50.5     0.9     0.0   98.98  100.55    0.00    0.00    0.00   98.98   69.43    0.00    0.00    0.59     0.3     0.3    3.53    1.04    1.48    1.50    3.27    0.08    0.06    0.05    0.04    0.02    0.02    0.02    0.05    0.68    0.37    0.35    3.57    1.05    1.49    1.52    3.32
 2020 227   122     0     0    51.5    50.7     0.9     0.0   99.49  101.08    0.00    0.00    0.00   99.49   69.77    0.00    0.00    0.66     0.3     0.3    3.55    1.05    1.49    1.48    3.29    0.07    0.06    0.05    0.04    0.02    0.02    0.02    0.05    0.74    0.36    0.34    3.59    1.06    1.51    1.50    3.34
 2020 228   123     0     0    51.7    50.9     0.9     0.0   99.98  101.58    0.00    0.00    0.00   99.98   70.07    0.00    0.00    0.72     0.3     0.3    3.58    1.06    1.50    1.47    3.32    0.07    0.06    0.05    0.04    0.02    0.02    0.02    0.05    0.79    0.36    0.34    3.61    1.08    1.52    1.49    3.37
 2020 229   124     0     0    51.9    51.1     0.8     0.0  100.46  102.06    0.00    0.00    0.00  100.46   70.34    0.00    0.00    0.78     0.3     0.3    3.60    1.07    1.51    1.46    3.34    0.07    0.05    0.05    0.04    0.02    0.02    0.02    0.05    0.85    0.37    0.34    3.64    1.09    1.53    1.48    3.39
 2020 230   125     0     0    52.2    51.3     0.9     0.0  100.94  102.54    0.00    0.00    0.00  100.94   70.57    0.00    0.00    0.53     0.5     0.3    3.62    1.08    1.52    1.45    3.36    0.08    0.05    0.05    0.04    0.02    0.02    0.02    0.05    0.62    0.54    0.35    3.66    1.10    1.54    1.47    3.41
 2020 231   126     0     0    52.1    51.1     1.0     0.0  101.52  103.00    0.00    0.00    0.00  101.52   71.24    0.00    0.00    0.28     0.3     0.3    3.64    1.09    1.53    1.44    3.38    0.20    0.09    0.04    0.04    0.02    0.02    0.02    0.05    0.48    0.38    0.36    3.68    1.11    1.55    1.46    3.43
 2020 232   127     0     0    52.4    51.5     1.0     0.0  102.09  103.59    0.00    0.00    0.00  102.09   71.49    0.00    0.00    0.46     0.3     0.5    3.52    1.15    1.54    1.43    3.39    0.19    0.09    0.04    0.04    0.02    0.02    0.02    0.05    0.65    0.41    0.59    3.55    1.16    1.56    1.45    3.43
 2020 233   128     0     0    52.6    51.6     0.9     0.0  102.65  104.17    0.00    0.00    0.00  102.65   71.90    0.00    0.00    0.40     0.3     0.6    3.54    1.16    1.55    1.43    3.41    0.18    0.08    0.04    0.04    0.02    0.02    0.02    0.05    0.58    0.40    0.59    3.58    1.17    1.57    1.44    3.46
 2020 234   129     0     0    52.7    51.8     0.9     0.0  103.18  104.72    0.00    0.00    0.00  103.18   72.26    0.00    0.00    0.39     0.3     0.6    3.56    1.17    1.57    1.42    3.43    0.14    0.08    0.04    0.04    0.02    0.02    0.02    0.05    0.54    0.39    0.60    3.60    1.19    1.58    1.43    3.48
 2020 235   130     0     0    53.0    52.1     0.9     0.0  103.68  105.25    0.00    0.00    0.00  103.68   72.54    0.00    0.00    0.46     0.3     0.6    3.59    1.18    1.58    1.41    3.45    0.11    0.07    0.04    0.04    0.02    0.02    0.02    0.05    0.57    0.38    0.60    3.62    1.20    1.59    1.43    3.50
 2020 236   131     0     0    53.2    52.4     0.9     0.0  104.17  105.76    0.00    0.00    0.00  104.17   72.77    0.00    0.00    0.55     0.3     0.6    3.61    1.19    1.59    1.40    3.48    0.09    0.07    0.04    0.04    0.02    0.02    0.02    0.05    0.64    0.37    0.61    3.65    1.21    1.60    1.42    3.53
 2020 237   132     0     0    53.5    52.6     0.8     0.0  104.65  106.26    0.00    0.00    0.00  104.65   72.98    0.00    0.00    0.42     0.4     0.6    3.63    1.20    1.60    1.40    3.50    0.08    0.06    0.04    0.04    0.02    0.02    0.02    0.05    0.50    0.47    0.63    3.67    1.22    1.61    1.41    3.55
 2020 238   133     0     0    53.7    52.7     0.9     0.0  105.23  106.73    0.00    0.00    0.00  105.23   73.40    0.00    0.00    0.28     0.3     0.6    3.66    1.21    1.61    1.39    3.52    0.21    0.09    0.04    0.04    0.02    0.02    0.01    0.05    0.48    0.39    0.66    3.69    1.23    1.63    1.41    3.57
 2020 239   134     0     0    54.1    53.1     0.9     0.0  105.82  107.35    0.00    0.00    0.00  105.82   73.58    0.00    0.00    0.49     0.4     0.9    3.50    1.27    1.61    1.39    3.52    0.18    0.09    0.03    0.04    0.02    0.02    0.01    0.05    0.67    0.45    0.93    3.54    1.29    1.63    1.41    3.57
 2020 240   135     0     0    54.2    53.3     0.9     0.0  106.39  107.96    0.00    0.00    0.00  106.39   73.97    0.00    0.00    0.42     0.3     0.9    3.53    1.29    1.63    1.39    3.54    0.17    0.08    0.03    0.04    0.02    0.02    0.01    0.05    0.58    0.40    0.96    3.56    1.30    1.64    1.40    3.59
 2020 241   136     0     0    54.5    53.6     0.8     0.0  106.94  108.54    0.00    0.00    0.00  106.94   74.27    0.00    0.00    0.23     0.3     1.0    3.55    1.30    1.64    1.39    3.57    0.13    0.07    0.03    0.03    0.02    0.02    0.01    0.05    0.36    0.39    1.06    3.59    1.31    1.65    1.40    3.61
 2020 242   137     0     0    54.4    53.4     1.1     0.0  107.68  109.04    0.00    0.00    0.00  107.68   75.05    0.00    0.00    0.34     0.3     0.7    3.58    1.31    1.65    1.39    3.59    0.17    0.21    0.06    0.03    0.02    0.02    0.01    0.05    0.51    0.47    0.77    3.61    1.33    1.67    1.40    3.64
 2020 243   138     0     0    54.6    53.3     1.3     0.0  108.42  109.59    0.00    0.00    0.00  108.42   75.62    0.00    0.00    0.31     0.3     0.6    3.54    1.34    1.65    1.38    3.60    0.27    0.29    0.08    0.04    0.02    0.02    0.01    0.05    0.58    0.61    0.69    3.57    1.35    1.67    1.40    3.65
 2020 244   139     0     0    54.8    53.6     1.1     0.0  109.16  110.47    0.00    0.00    0.00  109.16   76.19    0.00    0.00    0.39     0.5     0.7    3.44    1.37    1.65    1.39    3.60    0.21    0.21    0.08    0.04    0.02    0.02    0.01    0.05    0.59    0.68    0.79    3.48    1.39    1.67    1.40    3.65
 2020 245   140     0     0    54.7    53.3     1.4     0.0  109.91  110.99    0.00    0.00    0.00  109.91   77.04    0.00    0.00    0.32     0.3     0.6    3.41    1.39    1.65    1.38    3.62    0.29    0.30    0.12    0.04    0.02    0.02    0.01    0.05    0.61    0.59    0.72    3.45    1.41    1.67    1.40    3.67
 2020 246   141     0     0    54.9    53.4     1.4     0.0  110.63  111.64    0.00    0.00    0.00  110.63   77.57    0.00    0.00    0.45     0.3     0.6    3.37    1.41    1.65    1.39    3.63    0.24    0.35    0.14    0.04    0.02    0.02    0.01    0.05    0.69    0.68    0.73    3.40    1.43    1.67    1.40    3.68
 2020 247   142     0     0    54.9    53.6     1.4     0.0  111.32  112.41    0.00    0.00    0.00  111.32   78.20    0.00    0.00    0.42     0.5     0.6    3.28    1.44    1.65    1.39    3.63    0.23    0.27    0.15    0.04    0.02    0.02    0.01    0.05    0.65    0.72    0.79    3.32    1.46    1.67    1.40    3.68
 2020 248   143     0     0    54.8    53.5     1.3     0.0  112.02  113.15    0.00    0.00    0.00  112.02   79.00    0.00    0.00    0.39     0.4     0.5    3.31    1.45    1.66    1.39    3.65    0.22    0.24    0.15    0.04    0.02    0.02    0.01    0.05    0.61    0.64    0.66    3.34    1.47    1.68    1.40    3.70
 2020 249   144     0     0    54.9    53.6     1.3     0.0  112.72  113.86    0.00    0.00    0.00  112.72   79.64    0.00    0.00    0.38     0.4     0.4    3.33    1.46    1.67    1.39    3.67    0.21    0.22    0.16    0.04    0.02    0.02    0.01    0.05    0.59    0.61    0.57    3.37    1.48    1.69    1.40    3.72
 2020 250   145     0     0    55.0    53.8     1.3     0.0  113.44  114.62    0.00    0.00    0.00  113.44   80.19    0.00    0.00    0.39     0.4     0.4    3.35    1.47    1.68    1.39    3.70    0.19    0.21    0.15    0.04    0.02    0.02    0.01    0.05    0.57    0.61    0.52    3.39    1.49    1.70    1.40    3.75
 2020 251   146     0     0    55.3    54.1     1.2     0.0  114.18  115.43    0.00    0.00    0.00  114.18   80.71    0.00    0.00    0.29     0.4     0.4    3.37    1.48    1.69    1.39    3.72    0.15    0.20    0.14    0.04    0.02    0.02    0.01    0.05    0.44    0.63    0.52    3.41    1.50    1.71    1.40    3.77
 2020 252   147     0     0    55.5    54.2     1.4     0.0  114.98  116.05    0.00    0.00    0.00  114.98   81.23    0.00    0.00    0.24     0.3     0.4    3.40    1.50    1.70    1.39    3.75    0.25    0.29    0.15    0.04    0.02    0.02    0.01    0.05    0.49    0.59    0.53    3.43    1.51    1.72    1.40    3.80
 2020 253   148     0     0    56.0    54.4     1.5     0.0  115.73  116.63    0.00    0.00    0.00  115.73   81.57    0.00    0.00    0.19     0.3     0.4    3.45    1.51    1.70    1.39    3.77    0.33    0.37    0.15    0.04    0.02    0.02    0.01    0.05    0.53    0.64    0.56    3.49    1.52    1.72    1.40    3.81
 2020 254   149     0     0    54.3    52.5     1.8     0.0  116.39  117.03    0.00    0.00    0.00  116.39   83.87    0.00    0.00    0.23     0.3     0.3    2.25    1.52    1.71    1.39    3.79    0.39    0.43    0.22    0.07    0.02    0.02    0.01    0.05    0.62    0.71    0.53    2.32    1.53    1.73    1.40    3.83
 2020 255   150     0     0    53.3    51.4     2.0     0.0  116.96  117.41    0.00    0.00    0.00  116.96   85.41    0.00    0.00    0.28     0.3     0.3    1.49    1.52    1.71    1.39    3.80    0.43    0.46    0.26    0.09    0.02    0.02    0.01    0.05    0.71    0.75    0.54    1.58    1.54    1.73    1.40    3.85
 2020 256   151     0     0    52.8    50.7     2.1     0.0  117.45  117.80    0.00    0.00    0.00  117.45   86.45    0.00    0.00    0.33     0.3     0.3    1.04    1.54    1.70    1.39    3.80    0.44    0.47    0.29    0.10    0.02    0.02    0.01    0.05    0.77    0.77    0.59    1.14    1.56    1.72    1.40    3.85
 2020 257   152     0     0    52.4    50.4     2.0     0.0  117.91  118.38    0.00    0.00    0.00  117.91   87.30    0.00    0.00    0.39     0.4     0.3    0.79    1.55    1.69    1.39    3.79    0.40    0.41    0.26    0.11    0.02    0.02    0.01    0.05    0.79    0.78    0.60    0.90    1.57    1.71    1.41    3.84
 2020 258   153     0     0    52.1    50.2     1.9     0.0  118.45  119.03    0.00    0.00    0.00  118.45   88.19    0.00    0.00    0.37     0.4     0.3    0.54    1.56    1.70    1.39    3.81    0.35    0.36    0.24    0.12    0.02    0.02    0.01    0.05    0.72    0.74    0.57    0.66    1.58    1.72    1.41    3.86
 2020 259   154     0     0    52.0    50.2     1.7     0.0  119.11  119.81    0.00    0.00    0.00  119.11   88.91    0.00    0.00    0.29     0.4     0.4    0.42    1.57    1.71    1.39    3.83    0.30    0.31    0.22    0.12    0.02    0.02    0.01    0.05    0.59    0.71    0.59    0.54    1.59    1.73    1.41    3.88
 2020 260   155     0     0    52.1    50.1     2.0     0.0  119.86  120.34    0.00    0.00    0.00  119.86   89.59    0.00    0.00    0.32     0.3     0.3    0.45    1.59    1.70    1.40    3.83    0.38    0.38    0.27    0.14    0.02    0.02    0.01    0.05    0.69    0.67    0.55    0.59    1.61    1.72    1.42    3.88
 2020 261   156     0     0    52.4    50.4     2.0     0.0  120.66  121.08    0.00    0.00    0.00  120.66   90.02    0.00    0.00    0.48     0.3     0.3    0.41    1.60    1.70    1.41    3.85    0.29    0.42    0.32    0.14    0.02    0.02    0.01    0.05    0.77    0.75    0.62    0.55    1.61    1.72    1.42    3.90
 2020 262   157     0     0    52.6    50.9     1.8     0.0  121.45  122.14    0.00    0.00    0.00  121.45   90.61    0.00    0.00    0.44     0.5     0.4    0.43    1.61    1.70    1.41    3.85    0.26    0.31    0.24    0.15    0.02    0.02    0.01    0.05    0.69    0.78    0.66    0.58    1.63    1.72    1.43    3.90
 2020 263   158     0     0    52.5    50.9     1.6     0.0  122.24  123.04    0.00    0.00    0.00  122.24   91.52    0.00    0.00    0.39     0.4     0.4    0.36    1.62    1.71    1.42    3.87    0.24    0.27    0.21    0.15    0.02    0.02    0.01    0.05    0.63    0.68    0.60    0.51    1.64    1.73    1.43    3.92
 2020 264   159     0     0    52.6    51.0     1.6     0.0  123.02  123.89    0.00    0.00    0.00  123.02   92.23    0.00    0.00    0.38     0.4     0.4    0.33    1.63    1.72    1.42    3.90    0.23    0.25    0.19    0.16    0.02    0.02    0.01    0.05    0.61    0.64    0.55    0.49    1.65    1.73    1.43    3.95
 2020 265   160     0     0    52.8    51.2     1.5     0.0  123.82  124.72    0.00    0.00    0.00  123.82   92.83    0.00    0.00    0.27     0.4     0.4    0.35    1.64    1.73    1.43    3.92    0.21    0.23    0.18    0.16    0.02    0.02    0.01    0.05    0.48    0.62    0.55    0.51    1.66    1.74    1.44    3.97
 2020 266   161     0     0    53.0    51.2     1.8     0.0  124.64  125.27    0.00    0.00    0.00  124.64   93.39    0.00    0.00    0.31     0.3     0.3    0.48    1.66    1.72    1.44    3.91    0.30    0.32    0.25    0.16    0.02    0.02    0.01    0.05    0.61    0.60    0.52    0.64    1.68    1.74    1.45    3.96
 2020 267   162     0     0    53.4    51.7     1.8     0.0  125.47  126.15    0.00    0.00    0.00  125.47   93.80    0.00    0.00    0.45     0.3     0.4    0.45    1.67    1.72    1.44    3.93    0.25    0.37    0.20    0.16    0.02    0.02    0.01    0.05    0.70    0.69    0.59    0.61    1.69    1.74    1.45    3.98
 2020 268   163     0     0    53.6    52.0     1.6     0.0  126.32  127.15    0.00    0.00    0.00  126.32   94.50    0.00    0.00    0.43     0.5     0.4    0.49    1.69    1.72    1.45    3.93    0.23    0.28    0.18    0.16    0.02    0.02    0.01    0.05    0.67    0.74    0.55    0.65    1.71    1.74    1.47    3.97
 2020 269   164     0     0    53.6    52.1     1.5     0.0  127.20  128.12    0.00    0.00    0.00  127.20   95.36    0.00    0.00    0.40     0.4     0.4    0.42    1.70    1.73    1.46    3.95    0.22    0.24    0.17    0.16    0.02    0.02    0.01    0.05    0.62    0.66    0.54    0.58    1.72    1.75    1.47    4.00
 2020 270   165     0     0    53.8    52.3     1.5     0.0  128.11  129.09    0.00    0.00    0.00  128.11   96.11    0.00    0.00    0.40     0.4     0.4    0.37    1.71    1.74    1.47    3.98    0.20    0.22    0.16    0.16    0.02    0.02    0.01    0.05    0.60    0.63    0.53    0.53    1.73    1.76    1.48    4.03
 2020 271   166     0     0    54.0    52.6     1.4     0.0  129.04  130.06    0.00    0.00    0.00  129.04   96.81    0.00    0.00    0.40     0.4     0.4    0.36    1.72    1.75    1.47    4.00    0.18    0.21    0.16    0.16    0.02    0.02    0.01    0.05    0.58    0.61    0.53    0.52    1.74    1.77    1.49    4.05
 2020 272   167     0     0    54.9    53.5     1.4     0.0  129.93  130.95    0.00    0.00    0.00  129.93   96.81    0.00    0.00    0.53     0.5     0.5    0.46    1.73    1.76    1.48    4.03    0.16    0.21    0.16    0.16    0.02    0.02    0.01    0.05    0.69    0.75    0.63    0.62    1.75    1.78    1.49    4.08
 2020 273   168     0     0    55.7    54.3     1.4     0.0  130.76  131.76    0.00    0.00    0.00  130.76   96.81    0.00    0.00    0.63     0.7     0.6    0.56    1.74    1.77    1.49    4.05    0.15    0.21    0.17    0.16    0.02    0.02    0.01    0.05    0.78    0.87    0.73    0.72    1.76    1.79    1.50    4.10
 2020 274   169     0     0    56.5    55.0     1.5     0.0  131.55  132.53    0.00    0.00    0.00  131.55   96.81    0.00    0.00    0.73     0.8     0.7    0.65    1.75    1.78    1.49    4.08    0.14    0.22    0.17    0.17    0.02    0.02    0.01    0.05    0.87    0.99    0.83    0.81    1.77    1.80    1.50    4.12
 2020 275   170     0     0    57.2    55.7     1.5     0.0  132.28  133.23    0.00    0.00    0.00  132.28   96.81    0.00    0.00    0.81     0.9     0.7    0.73    1.76    1.79    1.50    4.10    0.13    0.23    0.17    0.17    0.02    0.02    0.01    0.05    0.94    1.10    0.91    0.90    1.78    1.81    1.51    4.15
 2020 276   171     0     0    57.9    56.4     1.5     0.0  132.95  133.86    0.00    0.00    0.00  132.95   96.81    0.00    0.00    0.87     1.0     0.8    0.80    1.77    1.80    1.50    4.12    0.13    0.23    0.18    0.18    0.02    0.02    0.01    0.05    1.00    1.19    0.99    0.98    1.79    1.82    1.52    4.17
 2020 277   172     0     0    58.6    57.0     1.5     0.0  133.61  134.52    0.00    0.00    0.00  133.61   96.81    0.00    0.00    0.94     1.0     0.9    0.88    1.78    1.81    1.51    4.14    0.12    0.24    0.18    0.18    0.02    0.02    0.01    0.05    1.06    1.28    1.07    1.06    1.80    1.83    1.52    4.19

*DSSAT Cropping System Model Ver. 4.7.5.035 -develop  JUN 14, 2021 09:08:55

*RUN   2        : 20 IRRIG, PETPEN KCB..... MZCER047 KSRT2001    2
 MODEL          : MZCER047 - Maize
 EXPERIMENT     : KSRT2001 SB ARM 2020 KS, IRRIGATED
 DATA PATH      :
 TREATMENT  2   : 20 IRRIG, PETPEN KCB..... MZCER047
  
!                                                                                                                                      NO3 (ppm) at soil dep. (cm):                                    NH4 (ppm) at soil dep. (cm):                                    Total Inorganic N @dep(ppm):
!                                                                                                                                       0-5    5-15   15-29   29-43   43-53   53-64  64-132 132-201     0-5    5-15   15-29   29-43   43-53   53-64  64-132 132-201     0-5    5-15   15-29   29-43   43-53   53-64  64-132 132-201
@YEAR DOY   DAS  NAPC  NI#M    NIAD    NITD    NHTD   NURTD    NMNC    NITC    NDNC    NIMC    AMLC   NNMNC    NUCM    NLCC    TDNC    NI1D    NI2D    NI3D    NI4D    NI5D    NI6D    NI7D    NI8D    NH1D    NH2D    NH3D    NH4D    NH5D    NH6D    NH7D    NH8D    NT1D    NT2D    NT3D    NT4D    NT5D    NT6D    NT7D    NT8D    
 2020 105     0     0     0    22.1    19.6     2.5     0.0    0.00    0.00    0.00    0.00    0.00    0.00    0.00    0.00    0.00    0.80     0.8     0.8    0.80    0.80    0.80    0.80    0.80    0.10    0.10    0.10    0.10    0.10    0.10    0.10    0.10    0.90    0.90    0.90    0.90    0.90    0.90    0.90    0.90
 2020 106     1     0     0    22.6    20.2     2.4     0.0    0.55    0.64    0.00    0.00    0.00    0.55    0.00    0.00    0.00    0.83     0.8     0.8    0.83    0.83    0.83    0.83    0.83    0.14    0.14    0.12    0.12    0.10    0.10    0.09    0.09    0.96    0.96    0.95    0.95    0.92    0.92    0.91    0.91
 2020 107     2     0     0    23.2    20.9     2.3     0.0    1.11    1.26    0.00    0.00    0.00    1.11    0.00    0.00    0.00    0.86     0.9     0.9    0.86    0.85    0.85    0.85    0.85    0.16    0.16    0.14    0.14    0.09    0.09    0.08    0.08    1.02    1.02    0.99    0.99    0.94    0.94    0.93    0.93
 2020 108     3     0     0    23.7    21.5     2.2     0.0    1.66    1.86    0.00    0.00    0.00    1.66    0.00    0.00    0.00    0.90     0.9     0.9    0.89    0.87    0.87    0.87    0.87    0.18    0.18    0.15    0.15    0.09    0.09    0.07    0.07    1.09    1.08    1.04    1.04    0.96    0.96    0.94    0.94
 2020 109     4     0     0    24.2    22.0     2.2     0.0    2.18    2.42    0.00    0.00    0.00    2.18    0.00    0.00    0.00    0.95     0.9     0.9    0.93    0.90    0.90    0.89    0.89    0.20    0.19    0.15    0.15    0.09    0.09    0.07    0.07    1.14    1.14    1.08    1.08    0.98    0.98    0.95    0.96
 2020 110     5     0     0    24.8    22.6     2.2     0.0    2.73    3.00    0.00    0.00    0.00    2.73    0.00    0.00    0.00    1.00     1.0     1.0    0.97    0.92    0.92    0.90    0.91    0.21    0.21    0.16    0.16    0.09    0.09    0.06    0.06    1.20    1.20    1.13    1.13    1.00    1.00    0.97    0.97
 2020 111     6     0     0    25.4    23.2     2.2     0.0    3.32    3.60    0.00    0.00    0.00    3.32    0.00    0.00    0.00    1.06     1.1     1.0    1.01    0.94    0.94    0.92    0.92    0.22    0.22    0.17    0.17    0.08    0.08    0.06    0.06    1.27    1.27    1.18    1.18    1.02    1.02    0.98    0.98
 2020 112     7     0     0    26.0    23.8     2.2     0.0    3.95    4.23    0.00    0.00    0.00    3.95    0.00    0.00    0.00    1.12     1.1     1.1    1.06    0.96    0.96    0.94    0.94    0.22    0.22    0.17    0.17    0.08    0.08    0.06    0.06    1.34    1.34    1.23    1.23    1.05    1.05    1.00    1.00
 2020 113     8     0     0    26.6    24.5     2.2     0.0    4.59    4.88    0.00    0.00    0.00    4.59    0.00    0.00    0.00    1.19     1.2     1.1    1.11    0.99    0.99    0.95    0.96    0.23    0.23    0.17    0.17    0.08    0.08    0.06    0.06    1.42    1.42    1.29    1.28    1.07    1.07    1.01    1.01
 2020 114     9     0     0    27.3    25.2     2.2     0.0    5.28    5.57    0.00    0.00    0.00    5.28    0.00    0.00    0.00    1.27     1.3     1.2    1.17    1.02    1.02    0.97    0.98    0.23    0.23    0.18    0.18    0.08    0.08    0.06    0.06    1.50    1.50    1.35    1.34    1.10    1.10    1.03    1.03
 2020 115    10     0     0    28.0    25.9     2.2     0.0    6.00    6.30    0.00    0.00    0.00    6.00    0.00    0.00    0.00    1.35     1.3     1.2    1.23    1.04    1.04    0.99    0.99    0.23    0.23    0.18    0.18    0.08    0.08    0.05    0.05    1.59    1.58    1.41    1.41    1.13    1.13    1.04    1.05
 2020 116    11     0     0    28.7    26.6     2.1     0.0    6.70    7.00    0.00    0.00    0.00    6.70    0.00    0.00    0.00    1.43     1.4     1.3    1.29    1.07    1.07    1.01    1.01    0.24    0.24    0.18    0.18    0.08    0.08    0.05    0.05    1.67    1.66    1.47    1.47    1.15    1.15    1.06    1.06
 2020 117    12     0     0    29.4    27.3     2.1     0.0    7.37    7.67    0.00    0.00    0.00    7.37    0.00    0.00    0.00    1.51     1.5     1.3    1.34    1.10    1.10    1.02    1.03    0.24    0.24    0.18    0.18    0.08    0.08    0.05    0.05    1.75    1.74    1.53    1.52    1.18    1.18    1.08    1.08
 2020 118    13     0     0    30.1    28.0     2.1     0.0    8.10    8.41    0.00    0.00    0.00    8.10    0.00    0.00    0.00    1.60     1.6     1.4    1.41    1.13    1.12    1.04    1.04    0.24    0.24    0.18    0.18    0.08    0.08    0.05    0.05    1.84    1.83    1.59    1.59    1.21    1.21    1.09    1.10
 2020 119    14     0     0    30.9    28.8     2.1     0.0    8.91    9.24    0.00    0.00    0.00    8.91    0.00    0.00    0.00    1.70     1.7     1.5    1.48    1.16    1.15    1.06    1.06    0.23    0.23    0.18    0.18    0.08    0.08    0.05    0.05    1.94    1.93    1.67    1.66    1.24    1.24    1.11    1.11
 2020 120    15     0     0    31.8    29.7     2.1     0.0    9.74   10.08    0.00    0.00    0.00    9.74    0.00    0.00    0.00    1.81     1.8     1.6    1.55    1.19    1.19    1.08    1.08    0.23    0.23    0.18    0.18    0.08    0.08    0.05    0.05    2.04    2.03    1.74    1.73    1.27    1.27    1.13    1.13
 2020 121    16     0     0    32.6    30.6     2.1     0.0   10.62   10.98    0.00    0.00    0.00   10.62    0.00    0.00    0.00    1.92     1.9     1.6    1.63    1.22    1.22    1.10    1.10    0.23    0.23    0.17    0.18    0.08    0.08    0.05    0.05    2.15    2.13    1.82    1.81    1.30    1.30    1.15    1.15
 2020 122    17     0     0    33.6    31.6     2.0     0.0   11.58   12.00    0.00    0.00    0.00   11.58    0.00    0.00    0.00    2.05     2.0     1.7    1.72    1.26    1.26    1.12    1.12    0.22    0.22    0.17    0.17    0.08    0.08    0.05    0.05    2.27    2.25    1.91    1.89    1.34    1.34    1.17    1.17
 2020 123    18     0     0    34.6    32.6     2.0     0.0   12.59   13.06    0.00    0.00    0.00   12.59    0.00    0.00    0.00    2.19     2.2     1.8    1.82    1.31    1.30    1.15    1.14    0.21    0.21    0.16    0.16    0.08    0.08    0.05    0.05    2.40    2.38    2.00    1.98    1.38    1.38    1.20    1.19
 2020 124    19     0     0    35.6    33.6     2.0     0.0   13.58   14.07    0.00    0.00    0.00   13.58    0.00    0.00    0.00    2.32     2.3     1.9    1.91    1.35    1.34    1.17    1.16    0.21    0.21    0.16    0.16    0.07    0.08    0.05    0.05    2.52    2.50    2.09    2.07    1.42    1.41    1.22    1.21
 2020 125    20     0     0    36.6    34.6     2.0     0.0   14.57   15.05    0.00    0.00    0.00   14.57    0.00    0.00    0.00    2.44     2.4     2.0    1.99    1.38    1.38    1.19    1.18    0.21    0.21    0.16    0.16    0.07    0.08    0.05    0.05    2.65    2.62    2.18    2.16    1.46    1.45    1.24    1.24
 2020 126    21     0     0    37.6    35.6     2.0     0.0   15.56   16.06    0.00    0.00    0.00   15.56    0.00    0.00    0.00    2.57     2.5     2.1    2.08    1.42    1.42    1.22    1.20    0.21    0.21    0.16    0.16    0.07    0.08    0.05    0.05    2.77    2.75    2.27    2.25    1.50    1.49    1.27    1.26
 2020 127    22     0     0    38.5    36.6     2.0     0.0   16.52   17.00    0.00    0.00    0.00   16.52    0.00    0.00    0.00    2.68     2.7     2.2    2.17    1.46    1.45    1.24    1.23    0.21    0.21    0.16    0.16    0.07    0.08    0.05    0.05    2.89    2.87    2.36    2.33    1.54    1.53    1.29    1.28
 2020 128    23     0     0    39.4    37.4     2.0     0.0   17.40   17.85    0.00    0.00    0.00   17.40    0.00    0.00    0.00    2.79     2.8     2.3    2.24    1.49    1.48    1.26    1.24    0.21    0.22    0.17    0.17    0.08    0.08    0.05    0.05    3.00    2.98    2.44    2.41    1.57    1.56    1.31    1.30
 2020 129    24     0     0    40.3    38.3     2.0     0.0   18.29   18.71    0.00    0.00    0.00   18.29    0.00    0.00    0.00    2.89     2.9     2.4    2.32    1.53    1.52    1.28    1.26    0.22    0.22    0.17    0.17    0.08    0.08    0.05    0.05    3.11    3.08    2.52    2.49    1.60    1.59    1.33    1.31
 2020 130    25     0     0    41.1    39.1     2.0     0.0   19.11   19.51    0.00    0.00    0.00   19.11    0.00    0.00    0.00    2.99     3.0     2.4    2.38    1.56    1.55    1.30    1.28    0.22    0.22    0.17    0.17    0.08    0.08    0.05    0.05    3.21    3.18    2.59    2.56    1.64    1.63    1.35    1.33
 2020 131    26     0     0    41.9    39.8     2.1     0.0   19.89   20.27    0.00    0.00    0.00   19.89    0.00    0.00    0.00    3.08     3.1     2.5    2.45    1.59    1.58    1.31    1.30    0.23    0.23    0.17    0.17    0.08    0.08    0.05    0.05    3.31    3.28    2.66    2.63    1.67    1.66    1.37    1.35
 2020 132    27     0     0    42.6    40.5     2.1     0.0   20.63   20.99    0.00    0.00    0.00   20.63    0.00    0.00    0.00    3.04     3.2     2.6    2.51    1.61    1.60    1.33    1.31    0.23    0.23    0.18    0.18    0.08    0.08    0.05    0.05    3.27    3.43    2.73    2.69    1.69    1.68    1.38    1.37
 2020 133    28     0     0    43.3    41.1     2.1     0.0   21.26   21.58    0.00    0.00    0.00   21.26    0.00    0.00    0.00    2.98     3.3     2.6    2.56    1.64    1.63    1.35    1.33    0.28    0.23    0.18    0.18    0.08    0.08    0.05    0.05    3.25    3.55    2.78    2.74    1.72    1.71    1.40    1.38
 2020 134    29     0     0    43.7    41.6     2.1     0.0   21.74   22.05    0.00    0.00    0.00   21.74    0.00    0.00    0.00    2.94     3.4     2.6    2.61    1.66    1.65    1.36    1.34    0.31    0.23    0.18    0.18    0.08    0.08    0.05    0.05    3.25    3.63    2.82    2.78    1.74    1.73    1.41    1.39
 2020 135    30     0     0    44.2    42.1     2.2     0.0   22.23   22.53    0.00    0.00    0.00   22.23    0.00    0.00    0.00    2.94     3.5     2.7    2.65    1.67    1.66    1.37    1.36    0.33    0.23    0.18    0.18    0.08    0.08    0.05    0.05    3.27    3.69    2.86    2.82    1.75    1.74    1.42    1.41
 2020 136    31     0     0    44.8    42.6     2.2     0.0   22.76   23.04    0.00    0.00    0.00   22.76    0.00    0.00    0.00    2.89     3.6     2.7    2.69    1.69    1.68    1.38    1.37    0.36    0.23    0.18    0.18    0.08    0.08    0.05    0.05    3.25    3.79    2.90    2.87    1.77    1.76    1.44    1.42
 2020 137    32     0     0    45.3    43.1     2.2     0.0   23.33   23.58    0.00    0.00    0.00   23.33    0.00    0.00    0.00    2.52     3.8     2.8    2.74    1.72    1.71    1.40    1.38    0.38    0.23    0.18    0.18    0.08    0.08    0.05    0.05    2.91    4.06    2.95    2.91    1.80    1.79    1.45    1.44
 2020 138    33     0     0    46.0    43.8     2.2     0.0   24.03   24.24    0.01    0.00    0.00   24.03    0.00    0.00    0.00    2.43     4.0     2.8    2.80    1.74    1.73    1.41    1.40    0.43    0.24    0.18    0.18    0.08    0.08    0.05    0.05    2.86    4.20    3.01    2.98    1.82    1.81    1.47    1.45
 2020 139    34     0     0    46.9    44.6     2.2     0.0   24.87   25.08    0.02    0.00    0.00   24.87    0.00    0.00    0.00    2.45     4.1     2.9    2.87    1.78    1.76    1.43    1.42    0.47    0.23    0.18    0.18    0.08    0.08    0.05    0.05    2.92    4.32    3.09    3.05    1.86    1.84    1.49    1.47
 2020 140    35     0     0    47.7    45.5     2.2     0.0   25.77   25.99    0.02    0.00    0.00   25.77    0.00    0.00    0.00    2.52     4.2     3.0    2.95    1.81    1.80    1.46    1.44    0.48    0.23    0.17    0.17    0.08    0.08    0.05    0.05    3.01    4.44    3.17    3.13    1.89    1.88    1.51    1.49
 2020 141    36     0     0    48.7    46.5     2.2     0.0   26.69   26.94    0.02    0.00    0.00   26.69    0.00    0.00    0.00    2.63     4.3     3.1    3.04    1.85    1.84    1.48    1.46    0.49    0.22    0.17    0.17    0.08    0.08    0.05    0.05    3.12    4.55    3.26    3.21    1.93    1.91    1.53    1.51
 2020 142    37     0     0    49.6    47.4     2.2     0.0   27.61   27.86    0.02    0.00    0.00   27.61    0.00    0.00    0.00    1.23     3.4     4.5    3.12    1.89    1.87    1.50    1.48    0.50    0.22    0.17    0.17    0.08    0.08    0.05    0.05    1.73    3.60    4.72    3.29    1.96    1.95    1.55    1.53
 2020 143    38     0     0    50.5    48.2     2.3     0.0   28.55   28.67    0.03    0.00    0.00   28.55    0.00    0.00    0.00    1.24     3.2     4.6    3.37    1.92    1.91    1.52    1.50    0.54    0.30    0.17    0.17    0.08    0.08    0.05    0.05    1.78    3.54    4.79    3.54    2.00    1.99    1.57    1.55
 2020 144    39     0     0    51.4    49.0     2.4     0.0   29.48   29.54    0.03    0.00    0.00   29.48    0.00    0.00    0.00    1.32     3.2     4.7    3.53    1.96    1.94    1.54    1.52    0.55    0.36    0.17    0.17    0.08    0.08    0.05    0.05    1.87    3.58    4.86    3.70    2.04    2.02    1.59    1.57
 2020 145    40     0     0    52.4    50.0     2.4     0.0   30.45   30.47    0.03    0.00    0.00   30.45    0.00    0.00    0.00    1.43     3.3     4.8    3.65    2.00    1.98    1.56    1.54    0.55    0.40    0.16    0.17    0.08    0.08    0.05    0.05    1.98    3.67    4.94    3.82    2.07    2.06    1.62    1.59
 2020 146    41     0     0    53.4    50.9     2.5     0.0   31.40   31.40    0.03    0.00    0.00   31.40    0.00    0.00    0.00    1.55     3.4     4.9    3.74    2.03    2.02    1.59    1.56    0.54    0.42    0.16    0.17    0.08    0.08    0.05    0.05    2.09    3.78    5.04    3.90    2.11    2.09    1.64    1.61
 2020 147    42     0     0    54.3    51.7     2.6     0.0   32.31   32.19    0.03    0.00    0.00   32.31    0.00    0.00    0.00    1.66     3.4     4.9    3.82    2.07    2.05    1.61    1.58    0.54    0.44    0.22    0.17    0.08    0.08    0.05    0.05    2.20    3.88    5.12    3.98    2.15    2.13    1.66    1.63
 2020 148    43     0     0    55.2    52.5     2.7     0.0   33.21   32.98    0.03    0.00    0.00   33.21    0.00    0.00    0.00    1.02     2.9     4.8    4.73    2.10    2.09    1.63    1.60    0.53    0.46    0.26    0.17    0.08    0.08    0.05    0.05    1.56    3.39    5.11    4.90    2.18    2.16    1.68    1.65
 2020 149    44     0     0    56.0    53.2     2.8     0.0   34.08   33.69    0.06    0.00    0.00   34.08    0.00    0.00    0.00    1.04     2.8     4.7    5.14    2.14    2.12    1.65    1.62    0.58    0.51    0.31    0.17    0.08    0.08    0.05    0.05    1.61    3.32    4.98    5.31    2.21    2.20    1.70    1.67
 2020 150    45     0     0    56.8    53.9     2.9     0.0   34.93   34.44    0.07    0.00    0.00   34.93    0.00    0.00    0.00    1.11     2.8     4.6    5.33    2.20    2.15    1.67    1.63    0.59    0.52    0.35    0.17    0.08    0.08    0.05    0.05    1.69    3.35    4.97    5.51    2.27    2.23    1.72    1.69
 2020 151    46     0     0    57.7    54.7     3.0     0.0   35.81   35.27    0.08    0.00    0.00   35.81    0.00    0.00    0.00    1.21     2.9     4.6    5.40    2.32    2.18    1.69    1.65    0.58    0.53    0.37    0.17    0.08    0.08    0.05    0.05    1.79    3.43    5.01    5.57    2.40    2.26    1.74    1.71
 2020 152    47     0     0    58.7    55.7     3.0     0.0   36.81   36.29    0.09    0.00    0.00   36.81    0.00    0.00    0.00    1.36     3.0     4.7    5.50    2.36    2.23    1.71    1.68    0.56    0.52    0.39    0.17    0.08    0.08    0.05    0.05    1.92    3.55    5.10    5.66    2.44    2.30    1.76    1.73
 2020 153    48     0     0    59.8    56.9     2.9     0.0   37.89   37.43    0.09    0.00    0.00   37.89    0.00    0.00    0.00    1.52     3.2     4.8    5.60    2.41    2.27    1.74    1.70    0.53    0.51    0.40    0.16    0.07    0.07    0.05    0.05    2.05    3.69    5.20    5.76    2.48    2.34    1.79    1.75
 2020 154    49     0     0    60.9    58.1     2.8     0.0   39.06   38.70    0.10    0.00    0.00   39.06    0.00    0.00    0.00    1.70     3.3     4.9    5.71    2.46    2.32    1.77    1.72    0.50    0.48    0.40    0.15    0.07    0.07    0.05    0.05    2.20    3.83    5.30    5.86    2.53    2.39    1.81    1.77
 2020 155    50     0     0    62.2    59.5     2.7     0.0   40.31   40.06    0.11    0.00    0.00   40.31    0.00    0.00    0.00    1.90     3.5     5.0    5.84    2.51    2.37    1.80    1.75    0.46    0.45    0.40    0.14    0.06    0.07    0.05    0.05    2.36    3.99    5.42    5.98    2.58    2.44    1.84    1.80
 2020 156    51     0     0    63.4    60.8     2.6     0.0   41.59   41.44    0.12    0.00    0.00   41.59    0.00    0.00    0.00    2.08     3.7     5.1    5.98    2.57    2.42    1.83    1.78    0.43    0.43    0.39    0.13    0.06    0.06    0.04    0.05    2.51    4.14    5.53    6.11    2.63    2.49    1.87    1.82
 2020 157    52     0     0    64.7    62.1     2.7     0.0   42.89   42.66    0.12    0.00    0.00   42.89    0.00    0.00    0.00    2.26     3.9     5.3    6.02    2.62    2.47    1.86    1.80    0.41    0.42    0.38    0.21    0.06    0.06    0.04    0.05    2.67    4.30    5.65    6.23    2.68    2.54    1.90    1.85
 2020 158    53     0     0    66.0    64.2     1.9     0.0   44.21   44.79    0.12    0.00    0.00   44.21    0.00    0.00    0.00    2.09     3.8     5.7    6.20    3.49    2.50    1.88    1.82    0.17    0.17    0.13    0.26    0.06    0.06    0.04    0.05    2.26    3.92    5.79    6.47    3.55    2.56    1.93    1.87
 2020 159    54     0     0    67.4    65.1     2.3     0.0   45.54   45.68    0.12    0.00    0.00   45.54    0.00    0.00    0.00    2.47     3.7     5.5    6.01    3.85    2.85    1.91    1.85    0.27    0.28    0.22    0.32    0.06    0.06    0.04    0.05    2.74    3.98    5.71    6.33    3.91    2.91    1.95    1.89
 2020 160    55     0     0    68.7    66.3     2.4     0.0   46.88   46.89    0.12    0.00    0.00   46.88    0.00    0.00    0.00    3.26     3.9     5.5    5.97    3.91    2.94    1.93    1.87    0.17    0.32    0.28    0.35    0.06    0.06    0.04    0.05    3.43    4.21    5.79    6.32    3.97    3.00    1.97    1.91
 2020 161    56     0     0    70.0    68.1     2.0     0.0   48.23   48.68    0.12    0.00    0.00   48.23    0.00    0.00    0.00    2.91     4.2     5.9    6.12    4.10    3.08    1.95    1.88    0.17    0.17    0.13    0.35    0.06    0.06    0.04    0.05    3.08    4.36    6.02    6.47    4.15    3.14    1.99    1.93
 2020 162    57     0     0    71.3    68.8     2.4     0.0   49.48   49.51    0.15    0.00    0.00   49.48    0.00    0.00    0.00    3.15     4.1     5.8    6.05    4.16    3.55    1.98    1.90    0.28    0.28    0.21    0.38    0.08    0.06    0.04    0.05    3.44    4.39    5.97    6.43    4.24    3.62    2.02    1.95
 2020 163    58     0     0    72.4    69.8     2.6     0.0   50.66   50.52    0.16    0.00    0.00   50.66    0.00    0.00    0.00    3.68     4.2     5.8    6.11    4.19    3.59    2.00    1.93    0.20    0.33    0.27    0.39    0.09    0.07    0.04    0.05    3.88    4.53    6.03    6.50    4.28    3.66    2.05    1.97
 2020 164    59     0     0    73.6    71.2     2.3     0.0   51.80   51.92    0.16    0.00    0.00   51.80    0.00    0.00    0.00    4.40     4.5     5.9    6.13    4.18    3.59    2.02    1.94    0.19    0.22    0.18    0.40    0.09    0.07    0.05    0.05    4.59    4.70    6.12    6.53    4.28    3.65    2.06    1.99
 2020 165    60     0     0    74.7    72.7     2.0     0.0   52.94   53.42    0.16    0.00    0.00   52.94    0.00    0.00    0.00    5.20     4.7     6.1    6.33    4.20    3.58    2.03    1.95    0.19    0.20    0.15    0.23    0.08    0.07    0.05    0.05    5.39    4.87    6.21    6.55    4.27    3.65    2.08    2.00
 2020 166    61     0     0    75.8    74.0     1.9     0.0   54.07   54.66    0.16    0.00    0.00   54.07    0.00    0.00    0.00    5.43     4.8     6.2    6.48    4.24    3.62    2.06    1.98    0.19    0.19    0.15    0.17    0.07    0.07    0.05    0.05    5.61    4.99    6.30    6.65    4.32    3.69    2.11    2.03
 2020 167    62     0     0    77.1    75.3     1.7     0.0   55.30   56.00    0.16    0.00    0.00   55.30    0.00    0.00    0.00    3.34     5.4     6.6    6.73    4.42    3.75    2.09    2.00    0.17    0.18    0.14    0.15    0.07    0.07    0.05    0.05    3.52    5.53    6.71    6.88    4.48    3.82    2.13    2.05
 2020 168    63     0     0    78.4    76.2     2.2     0.0   56.60   56.86    0.16    0.00    0.00   56.60    0.00    0.00    0.00    4.45     5.3     6.5    6.60    4.46    3.78    2.14    2.01    0.28    0.28    0.22    0.22    0.08    0.06    0.04    0.05    4.73    5.56    6.72    6.82    4.54    3.84    2.18    2.06
 2020 169    64     0     0    79.7    78.0     1.7     0.0   57.91   58.69    0.16    0.00    0.00   57.91    0.00    0.00    0.00    5.80     5.6     6.7    6.67    4.45    3.76    2.15    2.03    0.17    0.17    0.13    0.14    0.06    0.06    0.04    0.05    5.97    5.74    6.81    6.81    4.51    3.82    2.20    2.07
 2020 170    65     0     0    80.9    79.3     1.6     0.0   59.23   60.04    0.16    0.00    0.00   59.23    0.07    0.00    0.00    6.03     5.7     6.8    6.80    4.50    3.81    2.19    2.05    0.17    0.17    0.13    0.13    0.06    0.06    0.04    0.05    6.20    5.85    6.91    6.93    4.56    3.87    2.23    2.10
[...]
 2020 217   112     0     0    54.4    53.1     1.3     0.0   94.53   95.71    0.00    0.00    0.00   94.53   61.97    0.00    0.00    0.34     0.4     0.3    4.20    1.56    0.61    1.98    3.04    0.19    0.19    0.07    0.04    0.02    0.02    0.03    0.05    0.54    0.55    0.37    4.24    1.57    0.64    2.01    3.09
 2020 218   113     0     0    54.1    52.9     1.3     0.0   95.19   96.38    0.00    0.00    0.00   95.19   62.88    0.00    0.00    0.37     0.4     0.3    4.22    1.56    0.60    1.92    3.07    0.20    0.18    0.07    0.04    0.02    0.02    0.03    0.05    0.57    0.54    0.37    4.26    1.58    0.62    1.95    3.12
 2020 219   114     0     0    53.9    52.6     1.2     0.0   95.82   97.04    0.00    0.00    0.00   95.82   63.77    0.00    0.00    0.31     0.4     0.3    4.24    1.57    0.59    1.87    3.09    0.20    0.16    0.07    0.04    0.02    0.02    0.03    0.05    0.51    0.55    0.37    4.28    1.59    0.61    1.90    3.14
 2020 220   115     0     0    53.7    52.4     1.3     0.0   96.49   97.67    0.00    0.00    0.00   96.49   64.65    0.00    0.00    0.37     0.3     0.3    4.26    1.58    0.57    1.82    3.11    0.21    0.19    0.07    0.04    0.02    0.02    0.03    0.05    0.58    0.53    0.36    4.30    1.60    0.59    1.85    3.16
 2020 221   116     0     0    53.5    52.3     1.3     0.0   97.16   98.35    0.00    0.00    0.00   97.16   65.47    0.00    0.00    0.38     0.4     0.3    4.28    1.59    0.56    1.77    3.13    0.21    0.18    0.07    0.04    0.02    0.02    0.03    0.05    0.59    0.54    0.36    4.32    1.61    0.58    1.80    3.18
 2020 222   117     0     0    53.3    52.1     1.2     0.0   97.83   99.09    0.00    0.00    0.00   97.83   66.32    0.00    0.00    0.40     0.4     0.3    4.31    1.60    0.55    1.72    3.16    0.18    0.16    0.07    0.04    0.02    0.02    0.03    0.05    0.58    0.54    0.36    4.34    1.62    0.57    1.75    3.21
 2020 223   118     0     0    53.2    52.0     1.1     0.0   98.50   99.84    0.00    0.00    0.00   98.50   67.18    0.00    0.00    0.39     0.4     0.3    4.33    1.61    0.54    1.68    3.18    0.14    0.13    0.06    0.04    0.02    0.02    0.03    0.05    0.54    0.51    0.36    4.37    1.63    0.56    1.71    3.23
 2020 224   119     0     0    53.0    51.9     1.1     0.0   99.15  100.55    0.00    0.00    0.00   99.15   68.01    0.00    0.00    0.39     0.4     0.3    4.35    1.62    0.54    1.64    3.21    0.12    0.11    0.06    0.04    0.02    0.02    0.03    0.05    0.50    0.46    0.36    4.39    1.64    0.56    1.67    3.25
 2020 225   120     0     0    52.9    51.9     1.0     0.0   99.78  101.24    0.00    0.00    0.00   99.78   68.74    0.00    0.00    0.45     0.3     0.3    4.38    1.63    0.53    1.60    3.23    0.10    0.09    0.06    0.04    0.02    0.02    0.03    0.05    0.54    0.43    0.36    4.41    1.65    0.55    1.63    3.28
 2020 226   121     0     0    52.8    51.8     1.0     0.0  100.39  101.88    0.00    0.00    0.00  100.39   69.40    0.00    0.00    0.53     0.3     0.3    4.40    1.64    0.52    1.57    3.26    0.09    0.07    0.05    0.04    0.02    0.02    0.03    0.05    0.62    0.39    0.35    4.44    1.66    0.54    1.59    3.30
 2020 227   122     0     0    52.8    51.8     1.0     0.0  100.98  102.48    0.00    0.00    0.00  100.98   70.01    0.00    0.00    0.61     0.3     0.3    4.43    1.65    0.52    1.53    3.28    0.08    0.07    0.05    0.04    0.02    0.02    0.03    0.05    0.69    0.38    0.35    4.46    1.67    0.54    1.56    3.33
 2020 228   123     0     0    52.8    51.9     0.9     0.0  101.53  103.05    0.00    0.00    0.00  101.53   70.56    0.00    0.00    0.68     0.3     0.3    4.45    1.66    0.51    1.50    3.30    0.07    0.07    0.05    0.04    0.02    0.02    0.03    0.05    0.75    0.37    0.35    4.49    1.68    0.53    1.53    3.35
 2020 229   124     0     0    52.8    51.9     0.9     0.0  102.07  103.59    0.00    0.00    0.00  102.07   71.08    0.00    0.00    0.73     0.3     0.3    4.47    1.67    0.51    1.47    3.33    0.07    0.06    0.05    0.04    0.02    0.02    0.02    0.05    0.80    0.36    0.34    4.51    1.69    0.53    1.50    3.38
 2020 230   125     0     0    52.9    51.9     0.9     0.0  102.61  104.13    0.00    0.00    0.00  102.61   71.56    0.00    0.00    0.50     0.4     0.3    4.49    1.68    0.51    1.45    3.35    0.09    0.06    0.05    0.04    0.02    0.02    0.02    0.05    0.59    0.50    0.34    4.53    1.70    0.53    1.47    3.40
 2020 231   126     0     0    52.7    51.7     1.0     0.0  103.25  104.66    0.00    0.00    0.00  103.25   72.35    0.00    0.00    0.28     0.3     0.3    4.52    1.69    0.51    1.42    3.37    0.21    0.10    0.05    0.04    0.02    0.02    0.02    0.05    0.49    0.39    0.35    4.55    1.71    0.53    1.44    3.42
 2020 232   127     0     0    52.9    51.9     1.0     0.0  103.88  105.31    0.00    0.00    0.00  103.88   72.78    0.00    0.00    0.48     0.3     0.7    4.32    1.53    0.62    1.40    3.37    0.19    0.10    0.04    0.04    0.02    0.02    0.02    0.05    0.68    0.42    0.73    4.36    1.54    0.64    1.42    3.42
 2020 233   128     0     0    52.9    51.9     1.0     0.0  104.49  105.94    0.00    0.00    0.00  104.49   73.43    0.00    0.00    0.40     0.3     0.7    4.34    1.54    0.62    1.38    3.39    0.19    0.09    0.04    0.04    0.02    0.02    0.02    0.05    0.59    0.41    0.70    4.38    1.55    0.64    1.40    3.44
 2020 234   129     0     0    52.9    51.9     1.0     0.0  105.07  106.55    0.00    0.00    0.00  105.07   74.01    0.00    0.00    0.40     0.3     0.6    4.37    1.55    0.62    1.36    3.42    0.15    0.08    0.04    0.04    0.02    0.02    0.02    0.05    0.55    0.40    0.69    4.40    1.56    0.64    1.38    3.46
 2020 235   130     0     0    52.9    52.0     0.9     0.0  105.62  107.13    0.00    0.00    0.00  105.62   74.50    0.00    0.00    0.46     0.3     0.6    4.39    1.56    0.62    1.34    3.44    0.11    0.08    0.04    0.04    0.02    0.02    0.02    0.05    0.57    0.39    0.67    4.43    1.57    0.64    1.36    3.49
 2020 236   131     0     0    53.0    52.1     0.9     0.0  106.15  107.69    0.00    0.00    0.00  106.15   74.92    0.00    0.00    0.55     0.3     0.6    4.41    1.57    0.63    1.32    3.46    0.10    0.07    0.04    0.04    0.02    0.02    0.02    0.05    0.65    0.38    0.67    4.45    1.58    0.64    1.34    3.51
 2020 237   132     0     0    53.2    52.3     0.9     0.0  106.68  108.24    0.00    0.00    0.00  106.68   75.32    0.00    0.00    0.42     0.4     0.6    4.43    1.58    0.63    1.30    3.49    0.08    0.06    0.04    0.04    0.02    0.02    0.02    0.05    0.51    0.47    0.67    4.47    1.59    0.65    1.32    3.53
 2020 238   133     0     0    53.2    52.2     1.0     0.0  107.31  108.76    0.00    0.00    0.00  107.31   75.92    0.00    0.00    0.28     0.3     0.6    4.46    1.59    0.63    1.28    3.51    0.21    0.10    0.04    0.04    0.02    0.02    0.02    0.05    0.49    0.40    0.68    4.49    1.60    0.65    1.30    3.56
 2020 239   134     0     0    53.5    52.5     1.0     0.0  107.94  109.43    0.00    0.00    0.00  107.94   76.26    0.00    0.00    0.50     0.4     1.0    4.26    1.46    0.72    1.28    3.50    0.19    0.09    0.04    0.04    0.02    0.02    0.02    0.05    0.69    0.46    1.03    4.30    1.47    0.74    1.30    3.55
 2020 240   135     0     0    53.5    52.6     0.9     0.0  108.56  110.08    0.00    0.00    0.00  108.56   76.82    0.00    0.00    0.42     0.3     1.0    4.29    1.47    0.73    1.26    3.53    0.17    0.08    0.04    0.03    0.02    0.02    0.02    0.05    0.59    0.41    1.05    4.32    1.48    0.75    1.28    3.58
 2020 241   136     0     0    53.7    52.8     0.9     0.0  109.15  110.71    0.00    0.00    0.00  109.15   77.27    0.00    0.00    0.23     0.3     1.1    4.31    1.48    0.74    1.25    3.55    0.13    0.07    0.03    0.03    0.02    0.02    0.02    0.05    0.36    0.39    1.14    4.35    1.50    0.76    1.27    3.60
 2020 242   137     0     0    53.5    52.4     1.2     0.0  109.95  111.25    0.00    0.00    0.00  109.95   78.24    0.00    0.00    0.33     0.3     0.8    4.34    1.49    0.75    1.23    3.58    0.17    0.21    0.07    0.03    0.02    0.02    0.02    0.05    0.51    0.48    0.82    4.37    1.51    0.76    1.25    3.63
 2020 243   138     0     0    53.6    52.2     1.3     0.0  110.74  111.85    0.00    0.00    0.00  110.74   78.97    0.00    0.00    0.31     0.3     0.7    4.26    1.45    0.78    1.22    3.59    0.28    0.30    0.08    0.04    0.02    0.02    0.02    0.05    0.59    0.62    0.78    4.30    1.46    0.80    1.24    3.64
 2020 244   139     0     0    53.6    52.4     1.2     0.0  111.53  112.77    0.00    0.00    0.00  111.53   79.72    0.00    0.00    0.40     0.5     0.9    4.09    1.37    0.85    1.22    3.59    0.21    0.22    0.09    0.04    0.02    0.02    0.02    0.05    0.61    0.70    0.96    4.12    1.38    0.86    1.24    3.63
 2020 245   140     0     0    53.3    51.9     1.4     0.0  112.33  113.34    0.00    0.00    0.00  112.33   80.82    0.00    0.00    0.34     0.3     0.8    4.02    1.34    0.87    1.21    3.60    0.29    0.30    0.13    0.04    0.02    0.02    0.02    0.05    0.63    0.61    0.88    4.06    1.36    0.89    1.23    3.65
 2020 246   141     0     0    53.3    51.9     1.4     0.0  113.09  114.16    0.00    0.00    0.00  113.09   81.58    0.00    0.00    0.46     0.4     0.8    3.92    1.31    0.90    1.20    3.61    0.25    0.25    0.15    0.04    0.02    0.02    0.02    0.05    0.70    0.69    0.90    3.96    1.32    0.92    1.22    3.66
 2020 247   142     0     0    53.0    51.7     1.4     0.0  113.83  114.90    0.00    0.00    0.00  113.83   82.58    0.00    0.00    0.39     0.4     0.6    3.94    1.32    0.91    1.19    3.63    0.23    0.23    0.16    0.04    0.02    0.02    0.02    0.05    0.63    0.63    0.72    3.98    1.33    0.93    1.21    3.68
 2020 248   143     0     0    53.0    51.6     1.4     0.0  114.57  115.66    0.00    0.00    0.00  114.57   83.37    0.00    0.00    0.39     0.4     0.5    3.96    1.32    0.92    1.18    3.65    0.22    0.22    0.16    0.04    0.02    0.02    0.02    0.05    0.61    0.61    0.62    4.00    1.34    0.94    1.20    3.70
 2020 249   144     0     0    53.0    51.7     1.4     0.0  115.30  116.39    0.00    0.00    0.00  115.30   84.08    0.00    0.00    0.38     0.4     0.4    3.98    1.33    0.93    1.16    3.68    0.20    0.22    0.16    0.04    0.02    0.02    0.02    0.05    0.58    0.60    0.55    4.02    1.35    0.95    1.18    3.73
 2020 250   145     0     0    53.1    51.8     1.3     0.0  116.05  117.18    0.00    0.00    0.00  116.05   84.73    0.00    0.00    0.38     0.4     0.4    4.00    1.34    0.94    1.15    3.70    0.17    0.22    0.16    0.04    0.02    0.02    0.02    0.05    0.55    0.61    0.51    4.04    1.36    0.96    1.17    3.75
 2020 251   146     0     0    53.3    52.0     1.3     0.0  116.83  118.03    0.00    0.00    0.00  116.83   85.34    0.00    0.00    0.28     0.4     0.4    4.03    1.36    0.95    1.14    3.73    0.14    0.20    0.14    0.04    0.02    0.02    0.02    0.05    0.41    0.64    0.52    4.06    1.37    0.97    1.16    3.77
 2020 252   147     0     0    53.5    52.0     1.4     0.0  117.67  118.69    0.00    0.00    0.00  117.67   85.98    0.00    0.00    0.23     0.3     0.4    4.05    1.37    0.96    1.13    3.75    0.24    0.29    0.14    0.04    0.02    0.02    0.02    0.05    0.48    0.61    0.53    4.09    1.38    0.98    1.15    3.80
 2020 253   148     0     0    53.8    52.2     1.6     0.0  118.45  119.31    0.00    0.00    0.00  118.45   86.45    0.00    0.00    0.20     0.3     0.5    4.06    1.36    0.98    1.13    3.77    0.33    0.37    0.16    0.04    0.02    0.02    0.02    0.05    0.52    0.64    0.61    4.10    1.37    0.99    1.15    3.82
 2020 254   149     0     0    51.7    49.8     1.9     0.0  119.15  119.72    0.00    0.00    0.00  119.15   89.25    0.00    0.00    0.23     0.3     0.3    2.65    1.36    0.99    1.11    3.79    0.39    0.43    0.22    0.06    0.02    0.02    0.02    0.05    0.62    0.72    0.57    2.71    1.38    1.00    1.13    3.84
 2020 255   150     0     0    50.3    48.3     2.1     0.0  119.74  120.13    0.00    0.00    0.00  119.74   91.19    0.00    0.00    0.29     0.3     0.3    1.74    1.36    0.99    1.10    3.80    0.43    0.46    0.27    0.08    0.02    0.02    0.02    0.05    0.71    0.76    0.55    1.82    1.38    1.01    1.12    3.85
 2020 256   151     0     0    49.5    47.5     2.0     0.0  120.26  120.67    0.00    0.00    0.00  120.26   92.51    0.00    0.00    0.40     0.4     0.3    1.19    1.32    1.01    1.10    3.80    0.38    0.40    0.30    0.10    0.02    0.02    0.02    0.05    0.78    0.77    0.61    1.29    1.34    1.03    1.12    3.85
 2020 257   152     0     0    48.8    46.9     2.0     0.0  120.74  121.24    0.00    0.00    0.00  120.74   93.71    0.00    0.00    0.39     0.3     0.4    0.88    1.27    1.03    1.10    3.78    0.35    0.37    0.27    0.11    0.02    0.02    0.02    0.05    0.73    0.71    0.63    0.98    1.29    1.05    1.12    3.84
 2020 258   153     0     0    48.3    46.4     1.9     0.0  121.30  121.88    0.00    0.00    0.00  121.30   94.77    0.00    0.00    0.36     0.4     0.3    0.60    1.28    1.03    1.09    3.80    0.32    0.33    0.25    0.11    0.02    0.02    0.02    0.05    0.68    0.69    0.58    0.71    1.30    1.05    1.11    3.85
 2020 259   154     0     0    48.1    46.4     1.8     0.0  121.98  122.67    0.00    0.00    0.00  121.98   95.61    0.00    0.00    0.27     0.4     0.4    0.45    1.29    1.04    1.08    3.83    0.29    0.30    0.22    0.12    0.02    0.02    0.02    0.05    0.56    0.68    0.60    0.57    1.31    1.06    1.10    3.88
 2020 260   155     0     0    48.1    46.1     2.0     0.0  122.77  123.22    0.00    0.00    0.00  122.77   96.41    0.00    0.00    0.32     0.3     0.3    0.47    1.26    1.06    1.08    3.82    0.36    0.37    0.28    0.13    0.02    0.02    0.02    0.05    0.68    0.65    0.56    0.60    1.28    1.08    1.10    3.87
 2020 261   156     0     0    48.4    46.6     1.8     0.0  123.61  124.29    0.00    0.00    0.00  123.61   96.97    0.00    0.00    0.48     0.4     0.4    0.41    1.25    1.07    1.08    3.84    0.29    0.29    0.22    0.14    0.02    0.02    0.02    0.05    0.76    0.74    0.63    0.55    1.27    1.08    1.10    3.88
 2020 262   157     0     0    48.2    46.6     1.7     0.0  124.44  125.22    0.00    0.00    0.00  124.44   97.98    0.00    0.00    0.41     0.4     0.4    0.34    1.26    1.08    1.07    3.86    0.25    0.26    0.20    0.15    0.02    0.02    0.02    0.05    0.66    0.66    0.58    0.49    1.28    1.09    1.09    3.91
 2020 263   158     0     0    48.3    46.6     1.6     0.0  125.26  126.08    0.00    0.00    0.00  125.26   98.77    0.00    0.00    0.39     0.4     0.4    0.33    1.27    1.09    1.07    3.88    0.24    0.24    0.19    0.15    0.02    0.02    0.02    0.05    0.62    0.63    0.54    0.48    1.29    1.10    1.09    3.93
 2020 264   159     0     0    48.4    46.8     1.6     0.0  126.07  126.92    0.00    0.00    0.00  126.07   99.46    0.00    0.00    0.38     0.4     0.3    0.33    1.28    1.09    1.06    3.91    0.21    0.24    0.18    0.15    0.02    0.02    0.02    0.05    0.59    0.61    0.53    0.49    1.30    1.11    1.08    3.95
 2020 265   160     0     0    48.5    46.9     1.6     0.0  126.89  127.77    0.00    0.00    0.00  126.89  100.14    0.00    0.00    0.26     0.4     0.4    0.34    1.29    1.10    1.05    3.93    0.19    0.23    0.18    0.15    0.02    0.02    0.02    0.05    0.45    0.63    0.55    0.50    1.31    1.12    1.07    3.98
 2020 266   161     0     0    48.7    46.9     1.8     0.0  127.74  128.35    0.00    0.00    0.00  127.74  100.80    0.00    0.00    0.32     0.3     0.3    0.46    1.26    1.11    1.06    3.92    0.28    0.32    0.24    0.16    0.02    0.02    0.02    0.05    0.60    0.60    0.53    0.62    1.28    1.13    1.08    3.97
 2020 267   162     0     0    49.0    47.4     1.7     0.0  128.61  129.37    0.00    0.00    0.00  128.61  101.33    0.00    0.00    0.45     0.4     0.4    0.43    1.26    1.12    1.06    3.93    0.25    0.26    0.20    0.16    0.02    0.02    0.02    0.05    0.70    0.69    0.59    0.59    1.27    1.13    1.08    3.98
 2020 268   163     0     0    49.0    47.4     1.6     0.0  129.49  130.33    0.00    0.00    0.00  129.49  102.28    0.00    0.00    0.40     0.4     0.4    0.37    1.27    1.13    1.06    3.96    0.23    0.24    0.19    0.16    0.02    0.02    0.02    0.05    0.63    0.64    0.56    0.53    1.28    1.14    1.07    4.01
 2020 269   164     0     0    49.1    47.5     1.6     0.0  130.40  131.30    0.00    0.00    0.00  130.40  103.09    0.00    0.00    0.40     0.4     0.4    0.35    1.28    1.14    1.05    3.98    0.21    0.22    0.18    0.16    0.02    0.02    0.02    0.05    0.61    0.62    0.54    0.51    1.29    1.16    1.07    4.03
 2020 270   165     0     0    49.2    47.7     1.5     0.0  131.34  132.29    0.00    0.00    0.00  131.34  103.86    0.00    0.00    0.40     0.4     0.4    0.36    1.29    1.15    1.05    4.01    0.18    0.21    0.17    0.16    0.02    0.02    0.02    0.05    0.58    0.61    0.54    0.51    1.31    1.17    1.06    4.06
 2020 271   166     0     0    49.4    48.0     1.5     0.0  132.29  133.28    0.00    0.00    0.00  132.29  104.63    0.00    0.00    0.39     0.4     0.4    0.36    1.30    1.16    1.04    4.04    0.16    0.21    0.16    0.15    0.02    0.02    0.02    0.05    0.55    0.61    0.53    0.51    1.32    1.18    1.06    4.08
 2020 272   167     0     0    50.3    48.9     1.5     0.0  133.20  134.19    0.00    0.00    0.00  133.20  104.63    0.00    0.00    0.50     0.5     0.5    0.46    1.31    1.17    1.05    4.06    0.14    0.21    0.16    0.15    0.02    0.02    0.02    0.05    0.64    0.75    0.64    0.61    1.33    1.19    1.07    4.11
 2020 273   168     0     0    51.2    49.7     1.5     0.0  134.05  135.02    0.00    0.00    0.00  134.05  104.63    0.00    0.00    0.60     0.7     0.6    0.55    1.32    1.18    1.06    4.08    0.13    0.21    0.17    0.16    0.02    0.02    0.02    0.05    0.73    0.87    0.74    0.71    1.34    1.20    1.08    4.13
 2020 274   169     0     0    52.0    50.5     1.5     0.0  134.86  135.81    0.00    0.00    0.00  134.86  104.63    0.00    0.00    0.68     0.8     0.7    0.64    1.33    1.19    1.07    4.11    0.12    0.22    0.17    0.16    0.02    0.02    0.02    0.05    0.80    0.99    0.84    0.80    1.35    1.21    1.09    4.16
 2020 275   170     0     0    52.7    51.2     1.5     0.0  135.61  136.54    0.00    0.00    0.00  135.61  104.63    0.00    0.00    0.75     0.9     0.7    0.72    1.34    1.20    1.08    4.13    0.12    0.23    0.18    0.17    0.02    0.02    0.02    0.05    0.87    1.10    0.92    0.88    1.36    1.22    1.10    4.18
 2020 276   171     0     0    53.4    51.9     1.6     0.0  136.29  137.18    0.00    0.00    0.00  136.29  104.63    0.00    0.00    0.81     1.0     0.8    0.79    1.34    1.21    1.09    4.15    0.11    0.23    0.18    0.17    0.02    0.02    0.02    0.05    0.92    1.19    1.00    0.96    1.36    1.23    1.11    4.20
 2020 277   172     0     0    54.1    52.5     1.6     0.0  136.97  137.85    0.00    0.00    0.00  136.97  104.63    0.00    0.00    0.87     1.0     0.9    0.86    1.35    1.21    1.10    4.17    0.10    0.24    0.18    0.17    0.02    0.02    0.02    0.05    0.98    1.28    1.08    1.03    1.37    1.23    1.12    4.22
