*Soil Carbon Balance

*DSSAT Cropping System Model Ver. 4.7.5.035 -develop  JUN 14, 2021 14:17:00

*RUN   1        : 20 IRRIG, PETPEN NO KCB.. MZCER047 KSRT2001    1
 MODEL          : MZCER047 - Maize
 EXPERIMENT     : KSRT2001 SB ARM 2020 KS, IRRIGATED
 DATA PATH      :
 TREATMENT  1   : 20 IRRIG, PETPEN NO KCB.. MZCER047
  

!                                                 Initial               Final
!                                                Year/DOY            Year/DOY
!                                                2020-105            2020-105
! SOIL C BALANCE                                 --------- kg[C]/ha ---------
!  SOIL & SURFACE ORGANIC C
!   Soil Organic C                              182825.00           181442.31
!   Surface Organic C                                0.00                0.00
!   Soil Litter C                                    0.00               94.71
!   Surface Litter C                                 0.00                0.00
!                                                --------            --------
!   Total C in Soil and Surface Layers          182825.00           181537.02
!  ADDITIONS AND REMOVALS:
!   C in Harvest Residues from Previous              0.00
!   C from Organic Applications                      0.00
!   C in returned senesced material                185.35
!   CO2-C emitted                                                     1473.32
!                                                --------            --------
! TOTAL C BALANCE                               183010.34           183010.33
!   Balance                                                            -0.012

*DSSAT Cropping System Model Ver. 4.7.5.035 -develop  JUN 14, 2021 14:17:00

*RUN   2        : 20 IRRIG, PETPEN KCB..... MZCER047 KSRT2001    2
 MODEL          : MZCER047 - Maize
 EXPERIMENT     : KSRT2001 SB ARM 2020 KS, IRRIGATED
 DATA PATH      :
 TREATMENT  2   : 20 IRRIG, PETPEN KCB..... MZCER047
  

!                                                 Initial               Final
!                                                Year/DOY            Year/DOY
!                                                2020-105            2020-105
! SOIL C BALANCE                                 --------- kg[C]/ha ---------
!  SOIL & SURFACE ORGANIC C
!   Soil Organic C                              182825.00           181365.98
!   Surface Organic C                                0.00                0.00
!   Soil Litter C                                    0.00               66.69
!   Surface Litter C                                 0.00                0.00
!                                                --------            --------
!   Total C in Soil and Surface Layers          182825.00           181432.67
!  ADDITIONS AND REMOVALS:
!   C in Harvest Residues from Previous              0.00
!   C from Organic Applications                      0.00
!   C in returned senesced material                152.06
!   CO2-C emitted                                                     1544.40
!                                                --------            --------
! TOTAL C BALANCE                               182977.06           182977.06
!   Balance                                                             0.003

*DSSAT Cropping System Model Ver. 4.7.5.035 -develop  JUN 14, 2021 14:17:00

*RUN   3        : 20 IRRIG, ASCE SHORT..... MZCER047 KSRT2001    3
 MODEL          : MZCER047 - Maize
 EXPERIMENT     : KSRT2001 SB ARM 2020 KS, IRRIGATED
 DATA PATH      :
 TREATMENT  3   : 20 IRRIG, ASCE SHORT..... MZCER047
  

!                                                 Initial               Final
!                                                Year/DOY            Year/DOY
!                                                2020-105            2020-105
! SOIL C BALANCE                                 --------- kg[C]/ha ---------
!  SOIL & SURFACE ORGANIC C
!   Soil Organic C                              182825.00           181425.73
!   Surface Organic C                                0.00                0.00
!   Soil Litter C                                    0.00               62.06
!   Surface Litter C                                 0.00                0.00
!                                                --------            --------
!   Total C in Soil and Surface Layers          182825.00           181487.80
!  ADDITIONS AND REMOVALS:
!   C in Harvest Residues from Previous              0.00
!   C from Organic Applications                      0.00
!   C in returned senesced material                136.12
!   CO2-C emitted                                                     1473.31
!                                                --------            --------
! TOTAL C BALANCE                               182961.12           182961.11
!   Balance                                                            -0.009
