*WATER BALANCE OUTPUT FILE

*DSSAT Cropping System Model Ver. 4.7.5.035 -develop  JUN 14, 2021 14:17:00

*RUN   1        : 20 IRRIG, PETPEN NO KCB.. MZCER047 KSRT2001    1
 MODEL          : MZCER047 - Maize
 EXPERIMENT     : KSRT2001 SB ARM 2020 KS, IRRIGATED
 DATA PATH      :
 TREATMENT  1   : 20 IRRIG, PETPEN NO KCB.. MZCER047
  

!     WATER BALANCE PARAMETERS
!     ========================                 --mm--

!     Soil H20 (start) on Year/day 2020/106    603.00
!     Soil H20 (final) on Year/day 2020/277    523.22
!     Effective Irrigation                     209.55
!     Precipitation                            228.80
!     Water added with new mulch                 0.00
!     Drainage                                   0.00
!     Tiledrain flow                             0.00
!     Runoff                                     1.64
!     Mulch evaporation                          0.00
!     Soil Evaporation                         272.58
!     Transpiration                            243.93
!     Potential ET                            1093.96

!     Initial mulch water content                0.00
!     Final mulch water content                  0.00

!     Final Balance                            -0.015


*DSSAT Cropping System Model Ver. 4.7.5.035 -develop  JUN 14, 2021 14:17:00

*RUN   2        : 20 IRRIG, PETPEN KCB..... MZCER047 KSRT2001    2
 MODEL          : MZCER047 - Maize
 EXPERIMENT     : KSRT2001 SB ARM 2020 KS, IRRIGATED
 DATA PATH      :
 TREATMENT  2   : 20 IRRIG, PETPEN KCB..... MZCER047
  

!     WATER BALANCE PARAMETERS
!     ========================                 --mm--

!     Soil H20 (start) on Year/day 2020/106    603.00
!     Soil H20 (final) on Year/day 2020/277    617.11
!     Effective Irrigation                     209.55
!     Precipitation                            228.80
!     Water added with new mulch                 0.00
!     Drainage                                   0.00
!     Tiledrain flow                             0.00
!     Runoff                                     3.91
!     Mulch evaporation                          0.00
!     Soil Evaporation                         121.50
!     Transpiration                            298.82
!     Potential ET                             422.56

!     Initial mulch water content                0.00
!     Final mulch water content                  0.00

!     Final Balance                             0.001


*DSSAT Cropping System Model Ver. 4.7.5.035 -develop  JUN 14, 2021 14:17:00

*RUN   3        : 20 IRRIG, ASCE SHORT..... MZCER047 KSRT2001    3
 MODEL          : MZCER047 - Maize
 EXPERIMENT     : KSRT2001 SB ARM 2020 KS, IRRIGATED
 DATA PATH      :
 TREATMENT  3   : 20 IRRIG, ASCE SHORT..... MZCER047
  

!     WATER BALANCE PARAMETERS
!     ========================                 --mm--

!     Soil H20 (start) on Year/day 2020/106    603.00
!     Soil H20 (final) on Year/day 2020/277    532.75
!     Effective Irrigation                     209.55
!     Precipitation                            228.80
!     Water added with new mulch                 0.00
!     Drainage                                   0.00
!     Tiledrain flow                             0.00
!     Runoff                                     1.65
!     Mulch evaporation                          0.00
!     Soil Evaporation                         288.67
!     Transpiration                            218.28
!     Potential ET                            1344.16

!     Initial mulch water content                0.00
!     Final mulch water content                  0.00

!     Final Balance                            -0.007

