*Soil Organic Matter daily output file

*DSSAT Cropping System Model Ver. 4.7.5.035 -develop  JUN 10, 2021 14:49:00

*RUN   1        : 20 IRRIG, light rate,freq MZCER047 KSRT2001    1
 MODEL          : MZCER047 - Maize
 EXPERIMENT     : KSRT2001 SB ARM 2020 KS, IRRIGATED & NON-IRRIGATED
 DATA PATH      :
 TREATMENT  1   : 20 IRRIG, light rate,freq MZCER047
  
@YEAR DOY   DAS    OMAC    SCDD    SOCD    SC0D    SCTD   SOMCT    LCTD    ONAC    SNDD    SOND    SN0D    SNTD   SOMNT    LNTD
 2020 129     0       0   22422  182825       0  182825  182825     0.0    0.00  2242.2 18282.5    0.00 18282.5 18282.5    0.00
 2020 130     1       0   22421  182819       0  182819  182819     0.0    0.00  2242.1 18281.9    0.00 18281.9 18281.9    0.00
 2020 131     2       0   22420  182813       0  182813  182813     0.0    0.00  2242.0 18281.3    0.00 18281.3 18281.3    0.00
 2020 132     3       0   22420  182807       0  182807  182807     0.0    0.00  2242.0 18280.7    0.00 18280.7 18280.7    0.00
 2020 133     4       0   22419  182802       0  182802  182802     0.0    0.00  2241.9 18280.1    0.00 18280.1 18280.1    0.00
 2020 134     5       0   22418  182797       0  182797  182797     0.0    0.00  2241.8 18279.7    0.00 18279.7 18279.7    0.00
 2020 135     6       0   22418  182792       0  182792  182792     0.0    0.00  2241.8 18279.2    0.00 18279.2 18279.2    0.00
 2020 136     7       0   22417  182787       0  182787  182787     0.0    0.00  2241.7 18278.7    0.00 18278.7 18278.7    0.00
 2020 137     8       0   22416  182781       0  182781  182781     0.0    0.00  2241.6 18278.1    0.00 18278.1 18278.1    0.00
 2020 138     9       0   22416  182774       0  182774  182774     0.0    0.00  2241.6 18277.4    0.00 18277.4 18277.4    0.00
 2020 139    10       0   22414  182766       0  182766  182766     0.0    0.00  2241.4 18276.6    0.00 18276.6 18276.6    0.00
 2020 140    11       0   22413  182757       0  182757  182757     0.0    0.00  2241.3 18275.7    0.00 18275.7 18275.7    0.00
 2020 141    12       0   22412  182747       0  182747  182747     0.0    0.00  2241.2 18274.7    0.00 18274.7 18274.7    0.00
 2020 142    13       0   22411  182738       0  182738  182738     0.0    0.00  2241.1 18273.8    0.00 18273.8 18273.8    0.00
 2020 143    14       0   22410  182729       0  182729  182729     0.0    0.00  2241.0 18272.9    0.00 18272.9 18272.9    0.00
 2020 144    15       0   22408  182719       0  182719  182719     0.0    0.00  2240.8 18271.9    0.00 18271.9 18271.9    0.00
 2020 145    16       0   22407  182710       0  182710  182710     0.0    0.00  2240.7 18271.0    0.00 18271.0 18271.0    0.00
 2020 146    17       0   22406  182700       0  182700  182700     0.0    0.00  2240.6 18270.0    0.00 18270.0 18270.0    0.00
 2020 147    18       0   22404  182691       0  182691  182691     0.0    0.00  2240.4 18269.1    0.00 18269.1 18269.1    0.00
 2020 148    19       0   22403  182682       0  182682  182682     0.0    0.00  2240.3 18268.2    0.00 18268.2 18268.2    0.00
 2020 149    20       0   22402  182674       0  182674  182674     0.0    0.00  2240.2 18267.4    0.00 18267.4 18267.4    0.00
 2020 150    21       0   22401  182665       0  182665  182665     0.0    0.00  2240.1 18266.5    0.00 18266.5 18266.5    0.00
 2020 151    22       0   22400  182656       0  182656  182656     0.0    0.00  2240.0 18265.6    0.00 18265.6 18265.6    0.00
 2020 152    23       0   22398  182646       0  182646  182646     0.0    0.00  2239.8 18264.6    0.00 18264.6 18264.6    0.00
 2020 153    24       0   22397  182636       0  182636  182636     0.0    0.00  2239.7 18263.6    0.00 18263.6 18263.6    0.00
 2020 154    25       0   22395  182624       0  182624  182624     0.0    0.00  2239.5 18262.4    0.00 18262.4 18262.4    0.00
 2020 155    26       0   22394  182611       0  182611  182611     0.0    0.00  2239.4 18261.1    0.00 18261.1 18261.1    0.00
 2020 156    27       0   22392  182599       0  182599  182599     0.0    0.00  2239.2 18259.9    0.00 18259.9 18259.9    0.00
 2020 157    28       0   22390  182586       0  182586  182586     0.0    0.00  2239.0 18258.6    0.00 18258.6 18258.6    0.00
 2020 158    29       0   22388  182573       0  182573  182573     0.0    0.00  2238.8 18257.2    0.00 18257.2 18257.2    0.00
 2020 159    30       0   22386  182559       0  182559  182559     0.0    0.00  2238.6 18255.9    0.00 18255.9 18255.9    0.00
 2020 160    31       0   22385  182546       0  182546  182546     0.0    0.00  2238.5 18254.6    0.00 18254.6 18254.6    0.00
 2020 161    32       0   22383  182532       0  182532  182532     0.0    0.00  2238.3 18253.2    0.00 18253.2 18253.2    0.00
 2020 162    33       0   22381  182520       0  182520  182520     0.0    0.00  2238.1 18252.0    0.00 18252.0 18252.0    0.00
 2020 163    34       0   22379  182508       0  182508  182508     0.0    0.00  2237.9 18250.8    0.00 18250.8 18250.8    0.00
 2020 164    35       0   22378  182497       0  182497  182497     0.1    0.00  2237.8 18249.7    0.00 18249.7 18249.7    0.00
 2020 165    36       0   22376  182485       0  182485  182485     0.2    0.00  2237.6 18248.5    0.00 18248.5 18248.5    0.01
 2020 166    37    1000   22375  182874       0  182874  182474   400.3    8.00  2237.5 18255.4    0.00 18255.4 18247.4    8.01
 2020 167    38    1000   22367  182848       0  182848  182466   381.9    8.00  2236.5 18254.5    0.00 18254.5 18246.3    8.20
 2020 168    39    1000   22368  182821       0  182821  182457   364.7    8.00  2236.5 18253.4    0.00 18253.4 18245.1    8.32
 2020 169    40    1000   22369  182796       0  182796  182447   349.3    8.00  2236.4 18252.3    0.00 18252.3 18243.9    8.39
 2020 170    41    1000   22369  182773       0  182773  182437   335.8    8.00  2236.3 18251.1    0.00 18251.1 18242.7    8.41
 2020 171    42    1000   22369  182751       0  182751  182427   324.2    8.00  2236.1 18249.9    0.00 18249.9 18241.5    8.40
 2020 172    43    1000   22369  182733       0  182733  182418   314.7    8.00  2236.0 18248.8    0.00 18248.8 18240.4    8.38
 2020 173    44    1000   22369  182715       0  182715  182409   306.5    8.00  2235.9 18247.7    0.00 18247.7 18239.4    8.35
 2020 174    45    1000   22369  182699       0  182699  182399   299.6    8.00  2235.8 18246.7    0.00 18246.7 18238.3    8.31
 2020 175    46    1000   22368  182684       0  182684  182390   293.8    8.00  2235.7 18245.6    0.00 18245.6 18237.3    8.27
 2020 176    47    1000   22368  182670       0  182670  182381   288.9    8.00  2235.6 18244.6    0.00 18244.6 18236.3    8.23
 2020 177    48    1000   22367  182655       0  182655  182371   284.2    8.00  2235.5 18243.4    0.00 18243.4 18235.3    8.19
 2020 178    49    1000   22367  182640       0  182640  182360   279.9    8.00  2235.4 18242.3    0.00 18242.3 18234.1    8.15
 2020 179    50    1000   22366  182625       0  182625  182349   275.8    8.00  2235.3 18241.1    0.00 18241.1 18233.0    8.10
 2020 180    51    1000   22365  182610       0  182610  182338   272.0    8.00  2235.1 18239.9    0.00 18239.9 18231.8    8.05
 2020 181    52    1000   22364  182595       0  182595  182327   268.2    8.00  2235.0 18238.6    0.00 18238.6 18230.6    8.00
 2020 182    53    1000   22363  182580       0  182580  182315   264.7    8.00  2234.9 18237.3    0.00 18237.3 18229.3    7.95
 2020 183    54    1000   22362  182565       0  182565  182303   261.7    8.00  2234.7 18236.0    0.00 18236.0 18228.1    7.89
 2020 184    55    1000   22362  182551       0  182551  182291   259.1    8.00  2234.6 18234.7    0.00 18234.7 18226.9    7.84
 2020 185    56    1000   22361  182537       0  182537  182280   256.9    8.00  2234.5 18233.4    0.00 18233.4 18225.6    7.80
 2020 186    57    1000   22360  182523       0  182523  182268   254.9    8.00  2234.3 18232.2    0.00 18232.2 18224.4    7.75
 2020 187    58    1000   22359  182510       0  182510  182257   253.3    8.00  2234.2 18231.0    0.00 18231.0 18223.2    7.72
 2020 188    59    1000   22358  182499       0  182499  182246   252.3    8.00  2234.1 18229.8    0.00 18229.8 18222.1    7.69
 2020 189    60    1000   22357  182487       0  182487  182236   251.4    8.00  2234.0 18228.7    0.00 18228.7 18221.0    7.66
 2020 190    61    1000   22356  182476       0  182476  182225   250.8    8.00  2233.8 18227.6    0.00 18227.6 18219.9    7.64
 2020 191    62    1000   22355  182465       0  182465  182214   250.4    8.00  2233.7 18226.4    0.00 18226.4 18218.8    7.62
 2020 192    63    1000   22354  182454       0  182454  182204   250.3    8.00  2233.6 18225.3    0.00 18225.3 18217.7    7.61
 2020 193    64    1000   22353  182443       0  182443  182193   250.3    8.00  2233.5 18224.1    0.00 18224.1 18216.5    7.59
 2020 194    65    1000   22352  182432       0  182432  182182   250.2    8.00  2233.4 18223.0    0.00 18223.0 18215.4    7.58
 2020 195    66    1000   22351  182421       0  182421  182171   250.2    8.00  2233.2 18221.8    0.00 18221.8 18214.2    7.58
 2020 196    67    1000   22350  182411       0  182411  182160   250.3    8.00  2233.1 18220.7    0.00 18220.7 18213.1    7.58
 2020 197    68    1000   22349  182400       0  182400  182150   250.7    8.00  2233.0 18219.6    0.00 18219.6 18212.0    7.58
 2020 198    69    1000   22348  182391       0  182391  182139   251.1    8.00  2232.9 18218.5    0.00 18218.5 18211.0    7.58
 2020 199    70    1000   22347  182381       0  182381  182129   251.7    8.00  2232.8 18217.5    0.00 18217.5 18209.9    7.59
 2020 200    71    1000   22347  182371       0  182371  182119   251.1    8.00  2232.7 18216.5    0.00 18216.5 18208.9    7.60
 2020 201    72    1000   22346  182356       0  182356  182110   246.2    8.00  2232.6 18215.4    0.00 18215.4 18207.7    7.61
 2020 202    73    1000   22345  182342       0  182342  182100   242.5    8.00  2232.5 18214.3    0.00 18214.3 18206.6    7.62
 2020 203    74    1000   22345  182329       0  182329  182089   239.8    8.00  2232.4 18213.1    0.00 18213.1 18205.5    7.62
 2020 204    75    1000   22344  182317       0  182317  182079   238.0    8.00  2232.3 18212.0    0.00 18212.0 18204.4    7.62
 2020 205    76    1000   22343  182306       0  182306  182069   236.9    8.00  2232.2 18211.0    0.00 18211.0 18203.3    7.63
 2020 206    77    1000   22343  182296       0  182296  182059   236.4    8.00  2232.1 18209.9    0.00 18209.9 18202.3    7.64
 2020 207    78    1000   22342  182285       0  182285  182049   236.0    8.00  2232.0 18208.8    0.00 18208.8 18201.2    7.65
 2020 208    79    1000   22341  182274       0  182274  182038   235.8    8.00  2231.9 18207.7    0.00 18207.7 18200.1    7.66
 2020 209    80    1000   22340  182260       0  182260  182027   233.0    8.00  2231.8 18206.5    0.00 18206.5 18198.8    7.62
 2020 210    81    1000   22339  182247       0  182247  182017   230.1    8.00  2231.7 18205.2    0.00 18205.2 18197.6    7.59
 2020 211    82    1000   22338  182233       0  182233  182006   226.9    8.00  2231.6 18204.1    0.00 18204.1 18196.5    7.54
 2020 212    83    1000   22337  182221       0  182221  181996   224.6    8.00  2231.4 18202.9    0.00 18202.9 18195.4    7.51
 2020 213    84    1000   22337  182209       0  182209  181987   222.4    8.00  2231.3 18201.9    0.00 18201.9 18194.4    7.48
 2020 214    85    1000   22336  182198       0  182198  181978   220.2    8.00  2231.2 18200.8    0.00 18200.8 18193.4    7.44
 2020 215    86    1000   22335  182187       0  182187  181969   217.9    8.00  2231.1 18199.8    0.00 18199.8 18192.4    7.40
 2020 216    87    1000   22334  182175       0  182175  181960   215.5    8.00  2231.0 18198.7    0.00 18198.7 18191.4    7.36
 2020 217    88    1000   22334  182165       0  182165  181950   214.5    8.00  2230.9 18197.7    0.00 18197.7 18190.4    7.34
 2020 218    89    1000   22333  182155       0  182155  181941   213.3    8.00  2230.8 18196.7    0.00 18196.7 18189.4    7.32
 2020 219    90    1000   22332  182144       0  182144  181932   211.5    8.00  2230.7 18195.6    0.00 18195.6 18188.4    7.29
 2020 220    91    1000   22331  182134       0  182134  181923   210.8    8.00  2230.6 18194.6    0.00 18194.6 18187.4    7.28
 2020 221    92    1000   22330  182123       0  182123  181914   209.1    8.00  2230.5 18193.6    0.00 18193.6 18186.4    7.25
 2020 222    93    1000   22329  182111       0  182111  181904   206.9    8.00  2230.4 18192.5    0.00 18192.5 18185.3    7.20
 2020 223    94    1000   22328  182098       0  182098  181893   204.3    8.00  2230.3 18191.3    0.00 18191.3 18184.1    7.15
 2020 224    95    1000   22327  182084       0  182084  181883   201.8    8.00  2230.1 18190.1    0.00 18190.1 18183.0    7.10
 2020 225    96    1000   22326  182071       0  182071  181872   199.5    8.00  2230.0 18188.8    0.00 18188.8 18181.8    7.05
 2020 226    97    1000   22325  182058       0  182058  181861   197.7    8.00  2229.9 18187.6    0.00 18187.6 18180.6    7.01
 2020 227    98    1000   22324  182046       0  182046  181850   196.2    8.00  2229.7 18186.4    0.00 18186.4 18179.4    6.98
 2020 228    99    1000   22323  182034       0  182034  181839   195.2    8.00  2229.6 18185.2    0.00 18185.2 18178.2    6.96
 2020 229   100    1000   22322  182023       0  182023  181828   194.5    8.00  2229.5 18184.1    0.00 18184.1 18177.1    6.95
 2020 230   101    1000   22320  182011       0  182011  181818   193.6    8.00  2229.3 18182.9    0.00 18182.9 18176.0    6.93
 2020 231   102    1000   22319  182000       0  182000  181807   192.8    8.00  2229.2 18181.8    0.00 18181.8 18174.9    6.91
 2020 232   103    1000   22318  181989       0  181989  181797   192.2    8.00  2229.1 18180.6    0.00 18180.6 18173.7    6.90
 2020 233   104    1000   22317  181978       0  181978  181786   191.9    8.00  2228.9 18179.5    0.00 18179.5 18172.6    6.90
 2020 234   105    1000   22316  181967       0  181967  181776   191.6    8.00  2228.8 18178.4    0.00 18178.4 18171.5    6.89
 2020 235   106    1000   22315  181957       0  181957  181765   191.5    8.00  2228.7 18177.3    0.00 18177.3 18170.4    6.90
 2020 236   107    1000   22313  181946       0  181946  181755   191.5    8.00  2228.5 18176.1    0.00 18176.1 18169.2    6.90
 2020 237   108    1000   22312  181935       0  181935  181744   191.5    8.00  2228.4 18175.0    0.00 18175.0 18168.1    6.91
 2020 238   109    1000   22311  181925       0  181925  181733   191.4    8.00  2228.3 18173.9    0.00 18173.9 18167.0    6.91
 2020 239   110    1000   22310  181914       0  181914  181722   191.4    8.00  2228.1 18172.7    0.00 18172.7 18165.8    6.92
 2020 240   111    1000   22308  181902       0  181902  181711   191.4    8.00  2228.0 18171.6    0.00 18171.6 18164.6    6.93
 2020 241   112    1000   22307  181891       0  181891  181700   191.4    8.00  2227.8 18170.4    0.00 18170.4 18163.4    6.94
 2020 242   113    1000   22306  181878       0  181878  181688   190.1    8.00  2227.7 18169.1    0.00 18169.1 18162.2    6.91
 2020 243   114    1000   22304  181866       0  181866  181677   189.1    8.00  2227.5 18167.9    0.00 18167.9 18161.0    6.89
 2020 244   115    1000   22303  181853       0  181853  181666   187.4    8.00  2227.4 18166.7    0.00 18166.7 18159.8    6.85
 2020 245   116    1000   22302  181842       0  181842  181656   186.1    8.00  2227.3 18165.5    0.00 18165.5 18158.7    6.82
 2020 246   117    1000   22301  181831       0  181831  181646   185.2    8.00  2227.2 18164.5    0.00 18164.5 18157.7    6.80
 2020 247   118    1000   22300  181821       0  181821  181636   184.6    8.00  2227.1 18163.4    0.00 18163.4 18156.7    6.78
 2020 248   119    1000   22299  181811       0  181811  181627   184.0    8.00  2226.9 18162.4    0.00 18162.4 18155.6    6.77
 2020 249   120    1000   22298  181801       0  181801  181617   183.7    8.00  2226.8 18161.4    0.00 18161.4 18154.6    6.77
 2020 250   121    1000   22297  181791       0  181791  181608   183.2    8.00  2226.7 18160.3    0.00 18160.3 18153.6    6.76
 2020 251   122    1000   22296  181779       0  181779  181597   182.4    8.00  2226.6 18159.2    0.00 18159.2 18152.4    6.75
 2020 252   123    1000   22294  181768       0  181768  181586   181.7    8.00  2226.4 18158.0    0.00 18158.0 18151.3    6.74
 2020 253   124    1000   22293  181757       0  181757  181576   180.8    8.00  2226.3 18157.0    0.00 18157.0 18150.2    6.72
 2020 254   125    1000   22292  181749       0  181749  181568   181.5    8.00  2226.2 18156.1    0.00 18156.1 18149.3    6.74
 2020 255   126    1000   22292  181744       0  181744  181561   182.7    8.00  2226.1 18155.4    0.00 18155.4 18148.6    6.78
 2020 256   127    1000   22291  181739       0  181739  181555   184.3    8.00  2226.1 18154.8    0.00 18154.8 18148.0    6.82
 2020 257   128    1000   22290  181735       0  181735  181549   185.9    8.00  2226.0 18154.3    0.00 18154.3 18147.4    6.87
 2020 258   129    1000   22290  181730       0  181730  181543   186.9    8.00  2225.9 18153.6    0.00 18153.6 18146.7    6.90
 2020 259   130    1000   22289  181722       0  181722  181535   187.0    8.00  2225.8 18152.8    0.00 18152.8 18145.9    6.91
 2020 260   131    1000   22288  181713       0  181713  181526   186.4    8.00  2225.7 18151.8    0.00 18151.8 18144.9    6.90
 2020 261   132    1000   22287  181703       0  181703  181517   185.7    8.00  2225.6 18150.8    0.00 18150.8 18143.9    6.90
 2020 262   133    1000   22286  181693       0  181693  181508   185.3    8.00  2225.5 18149.9    0.00 18149.9 18143.0    6.90
 2020 263   134    1000   22285  181684       0  181684  181499   185.0    8.00  2225.4 18148.9    0.00 18148.9 18142.0    6.91
 2020 264   135    1000   22284  181675       0  181675  181490   184.7    8.00  2225.3 18148.0    0.00 18148.0 18141.1    6.91
 2020 265   136    1000   22283  181666       0  181666  181481   184.5    8.00  2225.1 18147.0    0.00 18147.0 18140.1    6.92
 2020 266   137    1000   22282  181656       0  181656  181472   184.2    8.00  2225.0 18146.0    0.00 18146.0 18139.1    6.93
 2020 267   138    1000   22280  181647       0  181647  181463   184.0    8.00  2224.9 18145.1    0.00 18145.1 18138.1    6.93
 2020 268   139    1000   22279  181637       0  181637  181453   183.7    8.00  2224.8 18144.1    0.00 18144.1 18137.1    6.94
 2020 269   140    1000   22278  181627       0  181627  181444   183.3    8.00  2224.7 18143.0    0.00 18143.0 18136.1    6.94
 2020 270   141    1000   22277  181616       0  181616  181433   182.8    8.00  2224.5 18142.0    0.00 18142.0 18135.0    6.94
 2020 271   142    1000   22276  181605       0  181605  181423   182.3    8.00  2224.4 18140.9    0.00 18140.9 18133.9    6.94
 2020 272   143    1000   22275  181591       0  181591  181413   177.8    8.00  2224.3 18139.7    0.00 18139.7 18132.9    6.83
 2020 273   144    1000   22273  181577       0  181577  181404   173.8    8.00  2224.2 18138.6    0.00 18138.6 18131.9    6.73
 2020 274   145    1000   22272  181565       0  181565  181394   170.3    8.00  2224.1 18137.6    0.00 18137.6 18130.9    6.64
 2020 275   146    1000   22272  181553       0  181553  181386   167.2    8.00  2224.0 18136.6    0.00 18136.6 18130.0    6.55
 2020 276   147    1000   22271  181543       0  181543  181378   164.5    8.00  2223.9 18135.7    0.00 18135.7 18129.2    6.48
 2020 277   148    1000   22270  181532       0  181532  181371   161.9    8.00  2223.8 18134.8    0.00 18134.8 18128.4    6.41
