*Soil Inorganic Nitrogen daily output file

*DSSAT Cropping System Model Ver. 4.7.5.035 -develop  JUN 14, 2021 14:17:00

*RUN   1        : 20 IRRIG, PETPEN NO KCB.. MZCER047 KSRT2001    1
 MODEL          : MZCER047 - Maize
 EXPERIMENT     : KSRT2001 SB ARM 2020 KS, IRRIGATED
 DATA PATH      :
 TREATMENT  1   : 20 IRRIG, PETPEN NO KCB.. MZCER047
  
!                                                                                                                                      NO3 (ppm) at soil dep. (cm):                                    NH4 (ppm) at soil dep. (cm):                                    Total Inorganic N @dep(ppm):
!                                                                                                                                       0-5    5-15   15-29   29-43   43-53   53-64  64-132 132-201     0-5    5-15   15-29   29-43   43-53   53-64  64-132 132-201     0-5    5-15   15-29   29-43   43-53   53-64  64-132 132-201
@YEAR DOY   DAS  NAPC  NI#M    NIAD    NITD    NHTD   NURTD    NMNC    NITC    NDNC    NIMC    AMLC   NNMNC    NUCM    NLCC    TDNC    NI1D    NI2D    NI3D    NI4D    NI5D    NI6D    NI7D    NI8D    NH1D    NH2D    NH3D    NH4D    NH5D    NH6D    NH7D    NH8D    NT1D    NT2D    NT3D    NT4D    NT5D    NT6D    NT7D    NT8D    
 2020 105     0     0     0    22.1    19.6     2.5     0.0    0.00    0.00    0.00    0.00    0.00    0.00    0.00    0.00    0.00    0.80     0.8     0.8    0.80    0.80    0.80    0.80    0.80    0.10    0.10    0.10    0.10    0.10    0.10    0.10    0.10    0.90    0.90    0.90    0.90    0.90    0.90    0.90    0.90
 2020 106     1     0     0    22.6    20.2     2.4     0.0    0.55    0.64    0.00    0.00    0.00    0.55    0.00    0.00    0.00    0.83     0.8     0.8    0.83    0.83    0.83    0.83    0.83    0.14    0.14    0.12    0.12    0.10    0.10    0.09    0.09    0.96    0.96    0.95    0.95    0.92    0.92    0.91    0.91
 2020 107     2     0     0    23.2    20.9     2.3     0.0    1.11    1.26    0.00    0.00    0.00    1.11    0.00    0.00    0.00    0.88     0.9     0.9    0.86    0.85    0.85    0.85    0.85    0.16    0.16    0.14    0.14    0.09    0.09    0.08    0.08    1.04    1.02    0.99    0.99    0.94    0.94    0.93    0.93
 2020 108     3     0     0    23.7    21.5     2.2     0.0    1.66    1.86    0.00    0.00    0.00    1.66    0.00    0.00    0.00    0.93     0.9     0.9    0.89    0.87    0.87    0.87    0.87    0.18    0.18    0.15    0.15    0.09    0.09    0.07    0.07    1.11    1.08    1.04    1.04    0.96    0.96    0.94    0.94
 2020 109     4     0     0    24.2    22.0     2.2     0.0    2.18    2.42    0.00    0.00    0.00    2.18    0.00    0.00    0.00    0.99     0.9     0.9    0.93    0.89    0.89    0.89    0.89    0.20    0.19    0.15    0.15    0.09    0.09    0.07    0.07    1.19    1.13    1.08    1.08    0.98    0.98    0.95    0.96
 2020 110     5     0     0    24.8    22.6     2.2     0.0    2.73    3.00    0.00    0.00    0.00    2.73    0.00    0.00    0.00    1.06     1.0     1.0    0.97    0.92    0.92    0.90    0.91    0.21    0.21    0.16    0.16    0.09    0.09    0.06    0.06    1.26    1.18    1.12    1.13    1.00    1.00    0.97    0.97
 2020 111     6     0     0    25.4    23.2     2.2     0.0    3.32    3.60    0.00    0.00    0.00    3.32    0.00    0.00    0.00    1.13     1.0     1.0    1.01    0.94    0.94    0.92    0.92    0.22    0.22    0.17    0.17    0.08    0.08    0.06    0.06    1.35    1.25    1.17    1.17    1.02    1.02    0.98    0.98
 2020 112     7     0     0    26.0    23.8     2.2     0.0    3.95    4.23    0.00    0.00    0.00    3.95    0.00    0.00    0.00    1.21     1.1     1.1    1.06    0.96    0.96    0.94    0.94    0.22    0.22    0.17    0.17    0.08    0.08    0.06    0.06    1.44    1.31    1.23    1.23    1.05    1.05    1.00    1.00
 2020 113     8     0     0    26.6    24.5     2.2     0.0    4.59    4.88    0.00    0.00    0.00    4.59    0.00    0.00    0.00    1.30     1.2     1.1    1.11    0.99    0.99    0.95    0.96    0.23    0.23    0.17    0.17    0.08    0.08    0.06    0.06    1.53    1.38    1.28    1.28    1.07    1.07    1.01    1.01
 2020 114     9     0     0    27.3    25.2     2.2     0.0    5.28    5.57    0.00    0.00    0.00    5.28    0.00    0.00    0.00    1.40     1.2     1.2    1.16    1.01    1.01    0.97    0.98    0.23    0.23    0.18    0.18    0.08    0.08    0.06    0.06    1.63    1.45    1.34    1.34    1.10    1.10    1.03    1.03
 2020 115    10     0     0    28.0    25.9     2.2     0.0    6.00    6.30    0.00    0.00    0.00    6.00    0.00    0.00    0.00    1.50     1.3     1.2    1.22    1.04    1.04    0.99    0.99    0.23    0.23    0.18    0.18    0.08    0.08    0.05    0.05    1.74    1.53    1.40    1.40    1.12    1.12    1.04    1.05
 2020 116    11     0     0    28.7    26.6     2.1     0.0    6.69    7.00    0.00    0.00    0.00    6.69    0.00    0.00    0.00    1.60     1.4     1.3    1.28    1.07    1.07    1.01    1.01    0.24    0.24    0.18    0.18    0.08    0.08    0.05    0.05    1.84    1.61    1.46    1.46    1.15    1.15    1.06    1.06
 2020 117    12     0     0    29.4    27.3     2.1     0.0    7.36    7.67    0.00    0.00    0.00    7.36    0.00    0.00    0.00    1.70     1.4     1.3    1.34    1.09    1.09    1.02    1.03    0.24    0.24    0.18    0.18    0.08    0.08    0.05    0.05    1.94    1.68    1.52    1.52    1.18    1.18    1.08    1.08
 2020 118    13     0     0    30.1    28.0     2.1     0.0    8.10    8.41    0.00    0.00    0.00    8.10    0.00    0.00    0.00    1.82     1.5     1.4    1.40    1.12    1.12    1.04    1.04    0.24    0.24    0.18    0.18    0.08    0.08    0.05    0.05    2.05    1.76    1.58    1.58    1.20    1.20    1.09    1.10
 2020 119    14     0     0    30.9    28.8     2.1     0.0    8.90    9.23    0.00    0.00    0.00    8.90    0.00    0.00    0.00    1.94     1.6     1.5    1.47    1.15    1.15    1.06    1.06    0.24    0.23    0.18    0.18    0.08    0.08    0.05    0.05    2.18    1.84    1.65    1.65    1.24    1.23    1.11    1.11
 2020 120    15     0     0    31.8    29.6     2.1     0.0    9.73   10.06    0.00    0.00    0.00    9.73    0.00    0.00    0.00    2.06     1.7     1.5    1.54    1.19    1.18    1.08    1.08    0.25    0.23    0.18    0.18    0.08    0.08    0.05    0.05    2.31    1.94    1.72    1.72    1.27    1.27    1.13    1.13
 2020 121    16     0     0    32.6    30.5     2.1     0.0   10.60   10.95    0.00    0.00    0.00   10.60    0.00    0.00    0.00    2.19     1.8     1.6    1.62    1.22    1.22    1.10    1.10    0.26    0.23    0.17    0.18    0.08    0.08    0.05    0.05    2.44    2.03    1.80    1.80    1.30    1.30    1.15    1.15
 2020 122    17     0     0    33.6    31.5     2.1     0.0   11.56   11.94    0.00    0.00    0.00   11.56    0.00    0.00    0.00    2.33     1.9     1.7    1.71    1.26    1.26    1.12    1.12    0.27    0.22    0.17    0.17    0.08    0.08    0.05    0.05    2.60    2.14    1.89    1.88    1.34    1.33    1.17    1.17
 2020 123    18     0     0    34.6    32.6     2.0     0.0   12.57   13.00    0.00    0.00    0.00   12.57    0.00    0.00    0.00    2.48     2.0     1.8    1.80    1.30    1.30    1.15    1.14    0.27    0.21    0.16    0.17    0.08    0.08    0.05    0.05    2.76    2.26    1.98    1.97    1.38    1.37    1.20    1.19
 2020 124    19     0     0    35.6    33.6     2.0     0.0   13.56   13.99    0.00    0.00    0.00   13.56    0.00    0.00    0.00    2.63     2.2     1.9    1.89    1.34    1.33    1.17    1.16    0.29    0.21    0.16    0.16    0.07    0.08    0.05    0.05    2.92    2.37    2.06    2.06    1.41    1.41    1.22    1.21
 2020 125    20     0     0    36.6    34.5     2.0     0.0   14.54   14.96    0.00    0.00    0.00   14.54    0.00    0.00    0.00    2.77     2.3     2.0    1.98    1.38    1.37    1.19    1.18    0.30    0.21    0.16    0.16    0.07    0.08    0.05    0.05    3.08    2.48    2.15    2.14    1.45    1.45    1.24    1.23
 2020 126    21     0     0    37.6    35.5     2.0     0.0   15.53   15.96    0.00    0.00    0.00   15.53    0.00    0.00    0.00    2.92     2.4     2.1    2.07    1.42    1.41    1.21    1.20    0.32    0.21    0.16    0.16    0.07    0.08    0.05    0.05    3.24    2.59    2.24    2.23    1.49    1.49    1.26    1.25
 2020 127    22     0     0    38.5    36.5     2.0     0.0   16.49   16.89    0.00    0.00    0.00   16.49    0.00    0.00    0.00    3.07     2.5     2.2    2.15    1.45    1.45    1.24    1.22    0.33    0.21    0.16    0.16    0.08    0.08    0.05    0.05    3.40    2.69    2.33    2.31    1.53    1.52    1.29    1.28
 2020 128    23     0     0    39.4    37.3     2.1     0.0   17.37   17.73    0.00    0.00    0.00   17.37    0.00    0.00    0.00    3.20     2.6     2.2    2.22    1.49    1.48    1.26    1.24    0.35    0.22    0.17    0.17    0.08    0.08    0.05    0.05    3.55    2.78    2.40    2.39    1.56    1.55    1.31    1.29
 2020 129    24     0     0    40.3    38.1     2.1     0.0   18.26   18.59    0.00    0.00    0.00   18.26    0.00    0.00    0.00    3.33     2.7     2.3    2.29    1.52    1.51    1.28    1.26    0.37    0.22    0.17    0.17    0.08    0.08    0.05    0.05    3.71    2.88    2.48    2.46    1.60    1.59    1.33    1.31
 2020 130    25     0     0    41.1    38.9     2.2     0.0   19.08   19.37    0.00    0.00    0.00   19.08    0.00    0.00    0.00    3.46     2.7     2.4    2.36    1.55    1.54    1.29    1.28    0.39    0.22    0.17    0.17    0.08    0.08    0.05    0.05    3.85    2.96    2.55    2.53    1.63    1.62    1.35    1.33
 2020 131    26     0     0    41.9    39.7     2.2     0.0   19.87   20.13    0.00    0.00    0.00   19.87    0.00    0.00    0.00    3.58     2.8     2.4    2.43    1.58    1.57    1.31    1.30    0.41    0.23    0.17    0.17    0.08    0.08    0.05    0.05    3.99    3.04    2.62    2.60    1.66    1.65    1.36    1.35
 2020 132    27     0     0    42.6    40.4     2.2     0.0   20.60   20.84    0.00    0.00    0.00   20.60    0.00    0.00    0.00    3.70     2.9     2.5    2.49    1.61    1.60    1.33    1.31    0.43    0.23    0.18    0.18    0.08    0.08    0.05    0.05    4.13    3.11    2.68    2.66    1.69    1.68    1.38    1.37
 2020 133    28     0     0    43.2    41.0     2.2     0.0   21.24   21.49    0.00    0.00    0.00   21.24    0.00    0.00    0.00    3.87     2.9     2.6    2.54    1.63    1.62    1.34    1.33    0.39    0.23    0.18    0.18    0.08    0.08    0.05    0.05    4.25    3.17    2.73    2.72    1.71    1.70    1.40    1.38
 2020 134    29     0     0    43.7    41.6     2.2     0.0   21.73   22.00    0.00    0.00    0.00   21.73    0.00    0.00    0.00    3.99     3.0     2.6    2.58    1.65    1.64    1.36    1.34    0.36    0.23    0.18    0.18    0.08    0.08    0.05    0.05    4.36    3.20    2.77    2.76    1.73    1.72    1.41    1.39
 2020 135    30     0     0    44.2    42.1     2.2     0.0   22.22   22.51    0.00    0.00    0.00   22.22    0.00    0.00    0.00    4.12     3.0     2.6    2.62    1.67    1.66    1.37    1.35    0.34    0.23    0.18    0.18    0.08    0.08    0.05    0.05    4.46    3.24    2.81    2.79    1.75    1.74    1.42    1.41
 2020 136    31     0     0    44.7    42.6     2.2     0.0   22.74   23.03    0.00    0.00    0.00   22.74    0.00    0.00    0.00    4.23     3.0     2.7    2.66    1.68    1.68    1.38    1.37    0.33    0.23    0.18    0.18    0.08    0.08    0.05    0.05    4.57    3.28    2.85    2.84    1.76    1.76    1.43    1.42
 2020 137    32     0     0    45.3    43.2     2.2     0.0   23.32   23.61    0.00    0.00    0.00   23.32    0.00    0.00    0.00    4.36     3.1     2.7    2.70    1.71    1.70    1.40    1.38    0.32    0.23    0.18    0.18    0.08    0.08    0.05    0.05    4.68    3.32    2.90    2.88    1.79    1.78    1.45    1.43
 2020 138    33     0     0    46.0    43.9     2.2     0.0   24.01   24.31    0.00    0.00    0.00   24.01    0.00    0.00    0.00    4.53     3.2     2.8    2.76    1.73    1.72    1.41    1.40    0.29    0.24    0.18    0.18    0.08    0.08    0.05    0.05    4.82    3.39    2.95    2.94    1.81    1.80    1.46    1.45
 2020 139    34     0     0    46.8    44.7     2.1     0.0   24.84   25.17    0.00    0.00    0.00   24.84    0.00    0.00    0.00    4.71     3.2     2.8    2.83    1.76    1.75    1.43    1.42    0.26    0.23    0.18    0.18    0.08    0.08    0.05    0.05    4.97    3.47    3.02    3.01    1.84    1.83    1.48    1.47
 2020 140    35     0     0    47.7    45.6     2.1     0.0   25.73   26.11    0.00    0.00    0.00   25.73    0.00    0.00    0.00    4.90     3.3     2.9    2.91    1.80    1.79    1.45    1.44    0.24    0.23    0.17    0.17    0.08    0.08    0.05    0.05    5.14    3.56    3.10    3.09    1.88    1.87    1.50    1.49
 2020 141    36     0     0    48.6    46.6     2.0     0.0   26.65   27.06    0.00    0.00    0.00   26.65    0.00    0.00    0.00    5.08     3.4     3.0    3.00    1.84    1.82    1.47    1.46    0.23    0.22    0.17    0.17    0.08    0.08    0.05    0.05    5.31    3.65    3.18    3.17    1.91    1.90    1.52    1.51
 2020 142    37     0     0    49.6    47.5     2.0     0.0   27.57   27.99    0.00    0.00    0.00   27.57    0.00    0.00    0.00    1.84     5.1     3.2    3.08    1.87    1.86    1.49    1.47    0.22    0.22    0.17    0.17    0.08    0.08    0.05    0.05    2.06    5.32    3.37    3.25    1.95    1.94    1.55    1.53
 2020 143    38     0     0    50.5    48.3     2.2     0.0   28.50   28.80    0.00    0.00    0.00   28.50    0.00    0.00    0.00    1.93     5.1     3.3    3.16    1.91    1.90    1.52    1.49    0.29    0.29    0.17    0.17    0.08    0.08    0.05    0.05    2.22    5.39    3.47    3.33    1.98    1.97    1.57    1.55
 2020 144    39     0     0    51.4    49.3     2.1     0.0   29.43   29.81    0.00    0.00    0.00   29.43    0.00    0.00    0.00    3.26     5.1     3.4    3.09    1.93    1.90    1.52    1.50    0.25    0.25    0.17    0.17    0.08    0.08    0.05    0.05    3.51    5.39    3.52    3.26    2.01    1.98    1.57    1.55
 2020 145    40   255     1   213.3    50.4   163.0    94.1   30.40   30.82    0.00    0.00    0.00   30.40    0.00    0.00    0.00    3.48     5.2     3.4    3.18    1.97    1.94    1.55    1.52  129.61   64.29    0.16    0.17    0.08    0.08    0.05    0.05  133.09   69.53    3.60    3.34    2.05    2.01    1.60    1.57
 2020 146    41   255     1   273.1   140.9   132.2    35.1   31.35  121.49    0.00    0.00    0.00   31.35    0.00    0.00    0.00   76.55    40.6     3.5    3.26    2.01    1.97    1.57    1.54  103.61   52.67    0.16    0.17    0.08    0.08    0.05    0.05  180.16   93.23    3.69    3.43    2.08    2.05    1.62    1.59
 2020 147    42   255     1   295.1   207.9    87.2    13.9   32.25  188.58    0.00    0.00    0.00   32.25    0.00    0.00    0.00  130.36    66.7     3.6    3.34    2.04    2.01    1.59    1.56   67.58   34.69    0.17    0.17    0.08    0.08    0.05    0.05  197.94  101.40    3.77    3.50    2.12    2.08    1.64    1.61
 2020 148    43   255     1   304.1   251.1    53.0     5.8   33.15  231.87    0.00    0.00    0.00   33.15    0.00    0.00    0.00  108.48    96.9    14.9    3.41    2.07    2.04    1.61    1.58   40.22   20.97    0.17    0.17    0.08    0.08    0.05    0.05  148.70  117.83   15.06    3.58    2.15    2.12    1.66    1.63
 2020 149    44   255     1   308.0   258.8    49.2     2.7   34.02  239.56    0.00    0.00    0.00   34.02    0.00    0.00    0.00  128.87    88.7    18.0    3.34    2.09    2.04    1.62    1.59   35.07   20.07    0.53    0.17    0.08    0.08    0.05    0.05  163.94  108.76   18.54    3.51    2.17    2.12    1.67    1.64
 2020 150    45   255     1   310.2   280.9    29.3     1.3   34.87  261.73    0.00    0.00    0.00   34.87    0.00    0.00    0.00  166.45    88.8    17.1    3.29    2.10    2.04    1.62    1.60   19.57   11.72    0.64    0.17    0.08    0.08    0.05    0.05  186.01  100.49   17.72    3.46    2.18    2.11    1.68    1.65
 2020 151    46   255     1   311.7   294.8    17.0     0.6   35.74  275.62    0.00    0.00    0.00   35.74    0.00    0.00    0.00  177.32    93.6    17.3    3.37    2.13    2.07    1.65    1.62   10.53    6.48    0.56    0.17    0.08    0.08    0.05    0.05  187.85  100.13   17.90    3.54    2.21    2.15    1.70    1.67
 2020 152    47   255     1   313.0   304.7     8.3     0.3   36.73  285.57    0.00    0.00    0.00   36.73    0.00    0.00    0.00  185.21    96.8    17.6    3.46    2.18    2.11    1.67    1.64    4.41    2.86    0.41    0.17    0.08    0.08    0.05    0.05  189.63   99.63   18.04    3.62    2.25    2.18    1.72    1.69
 2020 153    48   255     1   314.3   310.2     4.0     0.1   37.81  291.07    0.00    0.00    0.00   37.81    0.00    0.00    0.00  189.87    98.0    17.9    3.56    2.22    2.15    1.69    1.66    1.50    1.08    0.28    0.16    0.07    0.07    0.05    0.05  191.37   99.06   18.14    3.72    2.29    2.23    1.74    1.71
 2020 154    49   255     1   315.5   313.2     2.3     0.1   38.97  294.05    0.00    0.00    0.00   38.97    0.00    0.00    0.00  192.69    98.1    18.0    3.67    2.27    2.20    1.72    1.69    0.42    0.37    0.20    0.15    0.07    0.07    0.05    0.05  193.12   98.47   18.24    3.82    2.34    2.27    1.77    1.74
 2020 155    50   255     1   316.7   314.9     1.8     0.0   40.21  295.81    0.00    0.00    0.00   40.21    0.00    0.00    0.00  194.68    97.7    18.2    3.79    2.32    2.25    1.75    1.71    0.19    0.19    0.16    0.14    0.07    0.07    0.05    0.05  194.87   97.89   18.34    3.93    2.39    2.32    1.80    1.76
 2020 156    51   255     1   318.0   316.3     1.7     0.0   41.49  297.21    0.00    0.00    0.00   41.49    0.00    0.00    0.00  196.45    97.1    18.3    3.91    2.37    2.30    1.78    1.74    0.17    0.17    0.14    0.14    0.06    0.06    0.04    0.05  196.62   97.31   18.44    4.04    2.44    2.37    1.83    1.79
 2020 157    52   255     1   319.3   317.6     1.7     0.0   42.77  298.52    0.00    0.00    0.00   42.77    0.00    0.00    0.00  198.20    96.6    18.4    4.02    2.42    2.35    1.81    1.76    0.17    0.17    0.14    0.13    0.06    0.06    0.04    0.05  198.36   96.74   18.53    4.15    2.49    2.41    1.86    1.81
 2020 158    53   255     1   320.6   319.0     1.7     0.0   44.08  299.86    0.00    0.00    0.00   44.08    0.00    0.00    0.00  120.17   126.8    25.4    4.14    2.48    2.40    1.84    1.79    0.17    0.17    0.13    0.13    0.06    0.06    0.04    0.05  120.34  126.94   25.51    4.27    2.54    2.46    1.89    1.84
 2020 159    54   255     1   322.0   320.1     1.8     0.0   45.40  301.01    0.00    0.00    0.00   45.40    0.00    0.00    0.00  120.93   123.2    28.0    4.26    2.53    2.45    1.87    1.82    0.27    0.28    0.13    0.13    0.06    0.06    0.04    0.05  121.20  123.46   28.14    4.39    2.59    2.51    1.92    1.86
 2020 160    55   255     1   323.3   321.5     1.8     0.0   46.73  302.34    0.00    0.00    0.00   46.73    0.00    0.00    0.00  149.32   112.4    26.2    4.17    2.56    2.45    1.89    1.83    0.17    0.32    0.13    0.13    0.06    0.06    0.04    0.05  149.49  112.77   26.28    4.30    2.62    2.51    1.93    1.87
 2020 161    56   255     1   324.6   323.0     1.6     0.0   48.07  303.89    0.00    0.00    0.00   48.07    0.00    0.00    0.00  124.06   107.6    40.2    4.11    2.58    2.46    1.90    1.84    0.17    0.17    0.13    0.13    0.06    0.06    0.04    0.05  124.23  107.76   40.37    4.23    2.64    2.52    1.94    1.88
 2020 162    57   255     1   325.9   324.0     1.9     0.0   49.32  304.90    0.00    0.00    0.00   49.32    0.00    0.00    0.00  141.54    98.4    41.0    4.10    2.60    2.47    1.92    1.86    0.27    0.28    0.13    0.14    0.06    0.06    0.04    0.05  141.81   98.71   41.09    4.24    2.67    2.53    1.96    1.90
 2020 163    58   255     1   326.9   325.0     1.9     0.0   50.48  305.99    0.00    0.00    0.00   50.48    0.11    0.00    0.00  163.94    91.5    38.3    4.02    2.61    2.46    1.92    1.86    0.20    0.33    0.14    0.14    0.07    0.07    0.04    0.05  164.14   91.82   38.48    4.16    2.68    2.53    1.97    1.91
 2020 164    59   255     1   327.8   325.9     1.8     0.0   51.62  307.23    0.00    0.00    0.00   51.62    0.41    0.00    0.00  184.63    85.1    35.9    3.95    2.62    2.46    1.93    1.87    0.19    0.22    0.14    0.15    0.07    0.07    0.05    0.05  184.82   85.34   36.05    4.09    2.69    2.52    1.98    1.92
 2020 165    60   255     1   328.3   326.5     1.8     0.0   52.75  308.38    0.00    0.00    0.00   52.75    0.98    0.00    0.00  185.76    84.5    35.9    4.05    2.67    2.50    1.96    1.89    0.19    0.20    0.15    0.15    0.07    0.07    0.05    0.05  185.95   84.66   36.06    4.19    2.73    2.57    2.00    1.94
 2020 166    61   255     1   328.6   326.8     1.8     0.0   53.87  309.50    0.00    0.00    0.00   53.87    1.77    0.00    0.00  186.73    83.7    35.9    4.14    2.71    2.54    1.98    1.91    0.18    0.19    0.15    0.15    0.07    0.07    0.05    0.05  186.91   83.92   36.05    4.29    2.78    2.61    2.03    1.96
 2020 167    62   255     1   329.1   327.4     1.7     0.0   55.07  310.79    0.00    0.00    0.00   55.07    2.49    0.00    0.00  106.60   106.9    48.5    4.26    2.76    2.59    2.01    1.94    0.15    0.18    0.14    0.14    0.07    0.07    0.05    0.05  106.75  107.13   48.66    4.40    2.82    2.66    2.06    1.99
 2020 168    63   255     1   329.2   327.3     1.9     0.0   56.36  311.93    0.00    0.00    0.00   56.36    3.67    0.00    0.00  126.02    96.9    47.8    5.09    2.78    2.59    2.02    1.95    0.27    0.28    0.13    0.13    0.06    0.06    0.04    0.05  126.28   97.20   47.91    5.23    2.84    2.65    2.07    1.99
 2020 169    64   255     1   329.0   327.5     1.5     0.0   57.53  313.46    0.00    0.00    0.00   57.53    5.09    0.00    0.00  147.33    90.3    44.8    4.96    2.79    2.59    2.04    1.96    0.17    0.17    0.13    0.05    0.06    0.06    0.04    0.05  147.49   90.42   44.97    5.01    2.85    2.66    2.08    2.00
 2020 170    65   255     1   328.9   327.4     1.5     0.0   58.71  314.66    0.00    0.00    0.00   58.71    6.36    0.00    0.00  148.30    89.3    44.7    5.00    2.84    2.64    2.07    1.98    0.17    0.17    0.13    0.04    0.06    0.06    0.04    0.05  148.47   89.46   44.87    5.05    2.90    2.71    2.11    2.03
 2020 171    66   255     1   327.9   326.4     1.5     0.0   59.84  315.77    0.00    0.00    0.00   59.84    8.49    0.00    0.00  148.74    88.0    44.6    5.04    2.89    2.69    2.09    2.01    0.15    0.17    0.13    0.04    0.06    0.06    0.04    0.05  148.89   88.19   44.69    5.08    2.95    2.75    2.14    2.05
 2020 172    67   255     1   327.4   325.9     1.6     0.0   60.88  316.77    0.00    0.00    0.00   60.88    9.96    0.00    0.00  149.49    87.0    44.4    5.06    2.93    2.73    2.12    2.03    0.15    0.18    0.14    0.05    0.07    0.07    0.04    0.05  149.64   87.17   44.56    5.11    3.00    2.80    2.16    2.08
 2020 173    68   255     1   324.8   323.2     1.6     0.0   61.89  317.75    0.00    0.00    0.00   61.89   13.63    0.00    0.00  148.88    85.2    44.1    5.08    2.97    2.77    2.14    2.05    0.14    0.19    0.14    0.05    0.07    0.07    0.05    0.05  149.02   85.38   44.19    5.13    3.04    2.84    2.19    2.10
 2020 174    69   255     1   323.7   322.1     1.6     0.0   62.87  318.73    0.00    0.00    0.00   62.87   15.71    0.00    0.00   87.68   110.3    47.2    5.10    3.02    2.82    2.17    2.08    0.12    0.18    0.14    0.05    0.07    0.07    0.05    0.05   87.80  110.46   47.37    5.15    3.08    2.88    2.22    2.13
 2020 175    70   255     1   321.8   320.1     1.7     0.0   63.85  319.62    0.00    0.00    0.00   63.85   18.61    0.00    0.00   87.83   108.6    46.9    5.12    3.06    2.86    2.19    2.10    0.22    0.19    0.15    0.05    0.07    0.07    0.05    0.05   88.06  108.80   47.05    5.17    3.13    2.93    2.24    2.15
 2020 176    71   255     1   320.2   318.5     1.7     0.0   64.83  320.60    0.00    0.00    0.00   64.83   21.14    0.00    0.00  104.67   102.1    44.6    4.99    3.07    2.85    2.21    2.11    0.20    0.19    0.15    0.05    0.07    0.07    0.05    0.05  104.87  102.25   44.73    5.03    3.14    2.92    2.25    2.16
 2020 177    72   255     1   317.6   316.0     1.6     0.0   65.89  321.71    0.00    0.00    0.00   65.89   24.80    0.00    0.00  104.98    99.9    44.2    5.01    3.11    2.90    2.23    2.13    0.18    0.18    0.14    0.05    0.07    0.07    0.05    0.05  105.16  100.06   44.35    5.05    3.18    2.97    2.28    2.18
 2020 178    73   255     1   314.7   313.1     1.5     0.0   66.92  322.85    0.00    0.00    0.00   66.92   28.79    0.00    0.00  105.12    97.6    43.8    5.03    3.16    2.95    2.26    2.16    0.15    0.17    0.13    0.04    0.05    0.07    0.05    0.05  105.27   97.75   43.93    5.07    3.21    3.01    2.31    2.21
 2020 179    74   255     1   311.0   309.5     1.4     0.0   67.94  323.94    0.00    0.00    0.00   67.94   33.48    0.00    0.00  104.93    95.0    43.3    5.04    3.18    2.99    2.29    2.18    0.12    0.15    0.12    0.04    0.04    0.07    0.04    0.05  105.05   95.15   43.42    5.09    3.23    3.06    2.33    2.23
 2020 180    75   255     1   307.5   306.1     1.4     0.0   68.93  325.03    0.00    0.00    0.00   68.93   37.98    0.00    0.00  105.47    92.3    42.7    5.06    3.20    3.04    2.32    2.21    0.10    0.13    0.10    0.04    0.04    0.06    0.04    0.05  105.57   92.39   42.85    5.10    3.24    3.11    2.36    2.26
 2020 181    76   255     1   302.9   301.6     1.3     0.0   69.91  326.08    0.00    0.00    0.00   69.91   43.53    0.00    0.00   64.01   110.0    41.9    5.07    3.20    3.10    2.35    2.24    0.09    0.11    0.08    0.04    0.04    0.06    0.04    0.05   64.09  110.09   42.03    5.11    3.24    3.16    2.39    2.28
 2020 182    77   255     1   296.7   295.3     1.4     0.0   70.96  327.05    0.00    0.00    0.00   70.96   50.81    0.00    0.00   63.13   106.0    41.1    5.08    3.20    3.14    2.38    2.26    0.22    0.14    0.07    0.04    0.04    0.06    0.04    0.05   63.35  106.13   41.21    5.12    3.24    3.20    2.42    2.31
 2020 183    78   255     1   292.7   291.4     1.2     0.0   71.95  328.15    0.00    0.00    0.00   71.95   55.76    0.00    0.00   79.98    97.6    38.7    4.98    3.19    3.14    2.40    2.28    0.17    0.11    0.07    0.04    0.04    0.04    0.04    0.05   80.15   97.68   38.79    5.02    3.23    3.18    2.44    2.33
 2020 184    79   255     1   287.8   286.6     1.2     0.0   72.87  329.12    0.00    0.00    0.00   72.87   61.60    0.00    0.00   79.47    94.4    38.1    5.00    3.19    3.15    2.43    2.31    0.15    0.08    0.06    0.04    0.03    0.04    0.04    0.05   79.63   94.45   38.14    5.03    3.22    3.19    2.47    2.35
 2020 185    80   255     1   282.7   281.6     1.1     0.0   73.73  330.04    0.00    0.00    0.00   73.73   67.52    0.00    0.00   79.35    91.1    37.3    5.00    3.17    3.15    2.46    2.33    0.10    0.07    0.06    0.04    0.03    0.04    0.04    0.05   79.45   91.22   37.33    5.04    3.21    3.19    2.50    2.38
 2020 186    81   255     1   278.3   277.2     1.1     0.0   74.55  330.88    0.00    0.00    0.00   74.55   72.75    0.00    0.00   80.51    88.0    36.3    4.99    3.14    3.12    2.49    2.36    0.09    0.06    0.05    0.04    0.03    0.04    0.04    0.05   80.59   88.05   36.39    5.03    3.17    3.15    2.53    2.41
 2020 187    82   255     1   275.5   274.4     1.1     0.0   75.31  331.66    0.00    0.00    0.00   75.31   76.27    0.00    0.00   82.09    85.7    35.6    4.99    3.12    3.09    2.52    2.38    0.08    0.06    0.05    0.04    0.03    0.03    0.04    0.05   82.17   85.72   35.66    5.03    3.15    3.12    2.56    2.43
 2020 188    83   255     1   275.9   274.8     1.1     0.0   76.03  332.37    0.00    0.00    0.00   76.03   76.61    0.00    0.00   83.64    84.9    35.5    5.01    3.14    3.11    2.54    2.41    0.07    0.05    0.05    0.04    0.03    0.03    0.04    0.05   83.71   84.97   35.57    5.05    3.17    3.14    2.59    2.45
 2020 189    84   255     1   272.5   271.4     1.1     0.0   76.71  333.07    0.00    0.00    0.00   76.71   80.75    0.00    0.00   85.12    82.5    34.5    4.98    3.08    3.04    2.57    2.43    0.07    0.05    0.05    0.04    0.03    0.03    0.04    0.05   85.19   82.57   34.59    5.02    3.11    3.07    2.61    2.48
 2020 190    85   255     1   271.6   270.5     1.1     0.0   77.36  333.74    0.00    0.00    0.00   77.36   82.29    0.00    0.00   86.58    81.3    34.1    4.98    3.07    3.02    2.60    2.45    0.06    0.05    0.05    0.04    0.03    0.03    0.04    0.05   86.64   81.39   34.18    5.02    3.09    3.05    2.64    2.50
 2020 191    86   255     1   271.3   270.2     1.0     0.0   78.02  334.42    0.00    0.00    0.00   78.02   83.23    0.00    0.00   88.01    80.5    33.8    4.99    3.06    3.01    2.62    2.48    0.06    0.05    0.04    0.04    0.03    0.03    0.04    0.05   88.07   80.51   33.89    5.03    3.09    3.04    2.66    2.53
 2020 192    87   255     1   271.9   270.9     1.0     0.0   78.66  335.08    0.00    0.00    0.00   78.66   83.23    0.00    0.00   89.42    79.9    33.8    5.02    3.08    3.03    2.65    2.50    0.06    0.05    0.04    0.04    0.03    0.03    0.04    0.05   89.48   79.96   33.86    5.06    3.11    3.06    2.69    2.55
 2020 193    88   255     1   272.6   271.5     1.0     0.0   79.31  335.74    0.00    0.00    0.00   79.31   83.23    0.00    0.00   90.81    79.4    33.8    5.05    3.10    3.05    2.67    2.53    0.06    0.04    0.04    0.04    0.03    0.03    0.04    0.05   90.87   79.42   33.83    5.09    3.12    3.08    2.71    2.58
 2020 194    89   255     1   269.7   268.7     1.0     0.0   79.96  336.40    0.00    0.00    0.00   79.96   86.77    0.00    0.00   92.19    78.8    32.2    4.92    2.88    2.79    2.69    2.55    0.06    0.04    0.04    0.04    0.02    0.03    0.04    0.05   92.25   78.87   32.22    4.96    2.91    2.82    2.73    2.60
 2020 195    90   255     1   270.3   269.3     1.0     0.0   80.60  337.05    0.00    0.00    0.00   80.60   86.77    0.00    0.00   93.55    78.3    32.2    4.95    2.90    2.81    2.72    2.58    0.06    0.04    0.04    0.04    0.02    0.03    0.04    0.05   93.61   78.34   32.19    4.99    2.92    2.84    2.76    2.63
 2020 196    91   255     1   270.9   269.9     1.0     0.0   81.23  337.66    0.00    0.00    0.00   81.23   86.77    0.00    0.00   94.90    77.8    32.1    4.98    2.92    2.83    2.74    2.60    0.07    0.04    0.04    0.04    0.02    0.03    0.04    0.05   94.96   77.80   32.16    5.01    2.94    2.86    2.78    2.65
 2020 197    92   255     1   271.6   270.5     1.0     0.0   81.85  338.28    0.00    0.00    0.00   81.85   86.77    0.00    0.00   96.25    77.2    32.1    5.00    2.93    2.85    2.76    2.63    0.06    0.04    0.04    0.04    0.02    0.03    0.04    0.05   96.32   77.28   32.13    5.04    2.96    2.87    2.80    2.67
 2020 198    93   255     1   272.2   271.1     1.0     0.0   82.46  338.89    0.00    0.00    0.00   82.46   86.77    0.00    0.00   97.59    76.7    32.1    5.03    2.95    2.87    2.79    2.65    0.06    0.05    0.04    0.04    0.02    0.03    0.04    0.05   97.65   76.75   32.10    5.06    2.97    2.89    2.83    2.70
 2020 199    94   255     1   272.8   271.7     1.0     0.0   83.05  339.47    0.00    0.00    0.00   83.05   86.77    0.00    0.00   98.91    76.2    32.0    5.05    2.96    2.88    2.81    2.67    0.06    0.05    0.04    0.04    0.02    0.03    0.04    0.05   98.97   76.24   32.06    5.09    2.99    2.91    2.85    2.72
 2020 200    95   255     1   273.4   272.3     1.0     0.0   83.66  340.07    0.00    0.00    0.00   83.66   86.77    0.00    0.00   98.69    76.4    32.0    5.07    2.98    2.90    2.83    2.70    0.09    0.05    0.04    0.04    0.02    0.03    0.04    0.05   98.78   76.49   32.03    5.11    3.00    2.92    2.87    2.74
 2020 201    96   255     1   274.0   272.9     1.1     0.0   84.33  340.70    0.00    0.00    0.00   84.33   86.77    0.00    0.00  100.04    75.9    32.0    5.10    2.99    2.91    2.86    2.72    0.17    0.05    0.04    0.04    0.02    0.02    0.04    0.05  100.20   75.98   32.00    5.14    3.02    2.94    2.90    2.77
 2020 202    97   255     1   274.7   273.6     1.1     0.0   84.98  341.36    0.00    0.00    0.00   84.98   86.77    0.00    0.00  101.43    75.4    31.9    5.12    3.01    2.93    2.88    2.74    0.16    0.05    0.04    0.04    0.02    0.02    0.04    0.05  101.59   75.47   31.96    5.16    3.03    2.95    2.92    2.79
 2020 203    98   255     1   274.7   273.7     1.0     0.0   85.61  342.02    0.00    0.00    0.00   85.61   87.36    0.00    0.00  102.82    74.9    31.9    5.14    2.84    2.72    2.90    2.77    0.10    0.05    0.04    0.04    0.02    0.02    0.04    0.05  102.92   74.96   31.93    5.17    2.86    2.74    2.94    2.82
 2020 204    99   255     1   274.8   273.8     1.0     0.0   86.22  342.64    0.00    0.00    0.00   86.22   87.90    0.00    0.00  104.15    74.4    31.9    5.16    2.69    2.53    2.91    2.79    0.09    0.05    0.04    0.04    0.02    0.02    0.04    0.05  104.23   74.46   31.90    5.20    2.72    2.56    2.95    2.84
 2020 205   100   255     1   274.9   273.8     1.0     0.0   86.82  343.25    0.00    0.00    0.00   86.82   88.43    0.00    0.00  105.46    73.9    31.8    5.18    2.56    2.37    2.92    2.82    0.08    0.05    0.04    0.04    0.02    0.02    0.04    0.05  105.53   73.96   31.87    5.22    2.59    2.39    2.96    2.86
 2020 206   101   255     1   274.9   273.9     1.0     0.0   87.41  343.84    0.00    0.00    0.00   87.41   88.93    0.00    0.00  106.74    73.4    31.8    5.20    2.45    2.23    2.92    2.84    0.07    0.05    0.04    0.04    0.02    0.02    0.04    0.05  106.81   73.47   31.83    5.24    2.47    2.25    2.96    2.89
 2020 207   102   255     1   275.1   274.1     1.0     0.0   88.01  344.45    0.00    0.00    0.00   88.01   89.41    0.00    0.00  108.02    72.9    31.8    5.23    2.35    2.10    2.92    2.86    0.07    0.05    0.04    0.04    0.02    0.02    0.04    0.05  108.08   72.98   31.80    5.26    2.37    2.13    2.96    2.91
 2020 208   103   255     1   275.2   274.2     1.0     0.0   88.62  345.08    0.00    0.00    0.00   88.62   89.87    0.00    0.00   22.82    95.8    46.8    5.25    2.26    2.00    2.93    2.89    0.06    0.04    0.03    0.04    0.02    0.02    0.04    0.05   22.88   95.84   46.82    5.29    2.28    2.02    2.97    2.94
 2020 209   104   255     1   276.0   274.7     1.3     0.0   89.50  345.67    0.00    0.00    0.00   89.50   89.95    0.00    0.00   22.51    91.3    50.3    5.28    2.28    2.01    2.95    2.91    0.20    0.19    0.05    0.03    0.02    0.02    0.04    0.05   22.72   91.45   50.39    5.31    2.30    2.03    2.99    2.96
 2020 210   105   255     1   276.9   275.4     1.5     0.0   90.38  346.37    0.00    0.00    0.00   90.38   89.95    0.00    0.00   26.02    90.2    50.0    5.27    2.28    2.03    2.97    2.94    0.29    0.28    0.06    0.03    0.02    0.02    0.04    0.05   26.31   90.43   50.09    5.30    2.30    2.05    3.01    2.98
 2020 211   106   255     1   277.7   276.4     1.3     0.0   91.21  347.32    0.00    0.00    0.00   91.21   89.95    0.00    0.00   26.19    87.4    52.5    5.23    2.28    2.05    2.99    2.96    0.22    0.22    0.07    0.04    0.02    0.02    0.04    0.05   26.40   87.61   52.54    5.27    2.30    2.08    3.03    3.00
 2020 212   107   255     1   278.1   276.7     1.4     0.0   92.04  348.09    0.00    0.00    0.00   92.04   90.39    0.00    0.00   31.99    86.0    51.3    5.20    2.28    2.07    3.00    2.98    0.30    0.20    0.07    0.04    0.02    0.02    0.04    0.05   32.29   86.23   51.42    5.24    2.30    2.09    3.04    3.02
 2020 213   108   255     1   278.9   277.5     1.4     0.0   92.81  348.87    0.00    0.00    0.00   92.81   90.39    0.00    0.00   39.12    84.9    49.9    5.13    2.27    2.10    3.02    2.99    0.24    0.21    0.08    0.04    0.02    0.02    0.04    0.05   39.36   85.15   49.95    5.17    2.29    2.12    3.05    3.04
 2020 214   109   255     1   279.2   277.8     1.4     0.0   93.55  349.60    0.00    0.00    0.00   93.55   90.78    0.00    0.00   40.54    84.3    49.8    5.15    2.28    2.11    3.03    3.01    0.22    0.21    0.08    0.04    0.02    0.02    0.04    0.05   40.76   84.53   49.85    5.19    2.30    2.14    3.07    3.06
 2020 215   110   255     1   280.0   278.6     1.4     0.0   94.29  350.36    0.00    0.00    0.00   94.29   90.78    0.00    0.00   42.06    83.9    49.7    5.17    2.29    2.13    3.06    3.03    0.20    0.20    0.08    0.04    0.02    0.02    0.04    0.05   42.25   84.09   49.80    5.21    2.32    2.15    3.09    3.08
 2020 216   111   255     1   280.7   279.3     1.3     0.0   95.00  351.13    0.00    0.00    0.00   95.00   90.78    0.00    0.00   42.85    83.8    49.7    5.19    2.31    2.14    3.08    3.06    0.16    0.19    0.08    0.04    0.02    0.02    0.04    0.05   43.01   83.99   49.76    5.23    2.33    2.16    3.12    3.11
 2020 217   112   255     1   281.4   280.0     1.3     0.0   95.70  351.82    0.00    0.00    0.00   95.70   90.78    0.00    0.00   42.93    84.0    49.6    5.21    2.32    2.15    3.10    3.08    0.19    0.18    0.08    0.04    0.02    0.02    0.04    0.05   43.13   84.22   49.71    5.25    2.34    2.17    3.14    3.13
 2020 218   113   255     1   282.1   280.7     1.3     0.0   96.40  352.52    0.00    0.00    0.00   96.40   90.78    0.00    0.00   44.45    83.6    49.6    5.23    2.33    2.16    3.12    3.10    0.21    0.16    0.07    0.04    0.02    0.02    0.04    0.05   44.65   83.74   49.66    5.27    2.35    2.19    3.16    3.15
 2020 219   114   255     1   282.7   281.4     1.3     0.0   97.07  353.23    0.00    0.00    0.00   97.07   90.78    0.00    0.00   34.11    89.0    49.5    5.25    2.34    2.18    3.14    3.12    0.20    0.14    0.07    0.04    0.02    0.02    0.04    0.05   34.31   89.17   49.61    5.29    2.36    2.20    3.18    3.17
 2020 220   115   255     1   283.4   282.1     1.3     0.0   97.76  353.89    0.00    0.00    0.00   97.76   90.78    0.00    0.00   35.44    88.6    49.5    5.26    2.35    2.19    3.16    3.15    0.21    0.16    0.07    0.04    0.02    0.02    0.04    0.05   35.65   88.78   49.57    5.30    2.37    2.21    3.20    3.20
 2020 221   116   255     1   284.1   282.8     1.3     0.0   98.46  354.60    0.00    0.00    0.00   98.46   90.78    0.00    0.00   37.05    88.1    49.5    5.28    2.36    2.20    3.18    3.17    0.21    0.15    0.07    0.04    0.02    0.02    0.04    0.05   37.26   88.25   49.53    5.32    2.38    2.22    3.22    3.22
 2020 222   117   255     1   284.8   283.6     1.2     0.0   99.16  355.37    0.00    0.00    0.00   99.16   90.78    0.00    0.00   38.72    87.6    49.4    5.31    2.37    2.21    3.20    3.19    0.18    0.13    0.07    0.04    0.02    0.02    0.04    0.05   38.90   87.70   49.48    5.35    2.39    2.24    3.24    3.24
 2020 223   118   255     1   285.5   284.4     1.1     0.0   99.85  356.16    0.00    0.00    0.00   99.85   90.78    0.00    0.00   40.42    87.0    49.4    5.33    2.39    2.23    3.22    3.22    0.14    0.10    0.06    0.04    0.02    0.02    0.04    0.05   40.56   87.11   49.43    5.37    2.41    2.25    3.26    3.27
 2020 224   119   255     1   284.3   283.2     1.1     0.0  100.53  356.90    0.00    0.00    0.00  100.53   92.67    0.00    0.00   41.86    85.5    49.0    5.35    2.40    2.24    3.24    3.24    0.11    0.08    0.06    0.04    0.02    0.02    0.04    0.05   41.97   85.60   49.03    5.39    2.42    2.26    3.28    3.29
 2020 225   120   255     1   282.1   281.1     1.0     0.0  101.19  357.61    0.00    0.00    0.00  101.19   95.54    0.00    0.00   43.38    83.6    48.3    5.38    2.41    2.25    3.27    3.27    0.09    0.06    0.05    0.04    0.02    0.02    0.04    0.05   43.47   83.62   48.35    5.41    2.43    2.27    3.30    3.32
 2020 226   121   255     1   281.7   280.7     1.0     0.0  101.84  358.28    0.00    0.00    0.00  101.84   96.53    0.00    0.00   44.86    82.6    48.0    5.40    2.42    2.26    3.29    3.29    0.08    0.06    0.05    0.04    0.02    0.02    0.04    0.05   44.94   82.62   48.07    5.44    2.44    2.28    3.32    3.34
 2020 227   122   255     1   281.0   280.0     1.0     0.0  102.47  358.92    0.00    0.00    0.00  102.47   97.88    0.00    0.00   46.29    81.4    47.6    5.43    2.43    2.27    3.31    3.32    0.07    0.06    0.05    0.04    0.02    0.02    0.04    0.05   46.37   81.48   47.68    5.46    2.45    2.29    3.34    3.37
 2020 228   123   255     1   281.3   280.3     1.0     0.0  103.08  359.53    0.00    0.00    0.00  103.08   98.24    0.00    0.00   47.71    80.8    47.5    5.45    2.44    2.28    3.33    3.34    0.07    0.05    0.05    0.04    0.02    0.02    0.04    0.05   47.77   80.82   47.53    5.48    2.46    2.30    3.37    3.39
 2020 229   124   255     1   280.8   279.8     1.0     0.0  103.68  360.13    0.00    0.00    0.00  103.68   99.31    0.00    0.00   49.09    79.8    47.1    5.47    2.45    2.29    3.35    3.37    0.07    0.05    0.05    0.04    0.02    0.02    0.04    0.05   49.16   79.90   47.15    5.51    2.47    2.31    3.38    3.42
 2020 230   125   255     1   280.5   279.5     1.0     0.0  104.28  360.73    0.00    0.00    0.00  104.28  100.21    0.00    0.00   31.04    88.8    46.7    5.49    2.46    2.30    3.37    3.39    0.08    0.05    0.04    0.04    0.02    0.02    0.04    0.05   31.12   88.83   46.79    5.53    2.47    2.32    3.40    3.44
 2020 231   126   255     1   279.9   278.7     1.1     0.0  104.99  361.31    0.00    0.00    0.00  104.99  101.55    0.00    0.00   31.67    87.6    46.6    5.52    2.47    2.31    3.39    3.42    0.21    0.09    0.04    0.04    0.02    0.02    0.04    0.05   31.88   87.72   46.68    5.55    2.49    2.33    3.42    3.46
 2020 232   127   255     1   278.8   277.7     1.1     0.0  105.69  362.03    0.00    0.00    0.00  105.69  103.27    0.00    0.00   48.09    82.2    44.0    5.38    2.45    2.36    3.39    3.42    0.20    0.09    0.04    0.04    0.02    0.02    0.04    0.05   48.29   82.25   44.06    5.42    2.47    2.38    3.43    3.47
 2020 233   128   255     1   277.0   275.9     1.1     0.0  106.36  362.73    0.00    0.00    0.00  106.36  105.77    0.00    0.00   48.46    80.3    43.9    5.41    2.46    2.37    3.41    3.45    0.18    0.09    0.04    0.04    0.02    0.02    0.03    0.05   48.64   80.43   43.93    5.44    2.48    2.39    3.45    3.50
 2020 234   129   255     1   274.4   273.3     1.1     0.0  107.01  363.41    0.00    0.00    0.00  107.01  109.05    0.00    0.00   48.40    78.1    43.7    5.43    2.47    2.38    3.43    3.47    0.14    0.08    0.04    0.04    0.02    0.02    0.03    0.05   48.54   78.22   43.78    5.46    2.49    2.40    3.47    3.52
 2020 235   130   255     1   272.1   271.1     1.0     0.0  107.63  364.06    0.00    0.00    0.00  107.63  111.96    0.00    0.00   49.49    75.7    43.6    5.45    2.48    2.39    3.45    3.50    0.11    0.07    0.04    0.04    0.02    0.02    0.03    0.05   49.59   75.75   43.61    5.49    2.50    2.41    3.48    3.54
 2020 236   131   255     1   270.6   269.6     1.0     0.0  108.23  364.69    0.00    0.00    0.00  108.23  114.06    0.00    0.00   50.79    73.7    43.5    5.47    2.49    2.40    3.47    3.52    0.09    0.07    0.04    0.04    0.02    0.02    0.03    0.05   50.88   73.73   43.49    5.51    2.51    2.42    3.50    3.57
 2020 237   132   255     1   270.2   269.3     1.0     0.0  108.83  365.31    0.00    0.00    0.00  108.83  115.01    0.00    0.00   32.50    82.3    43.4    5.50    2.51    2.41    3.49    3.55    0.08    0.06    0.04    0.04    0.02    0.02    0.03    0.05   32.58   82.35   43.42    5.53    2.52    2.43    3.52    3.59
 2020 238   133   255     1   270.1   269.0     1.1     0.0  109.55  365.90    0.00    0.00    0.00  109.55  115.91    0.00    0.00   33.06    81.5    43.3    5.52    2.52    2.42    3.51    3.57    0.21    0.10    0.04    0.04    0.02    0.02    0.03    0.05   33.27   81.56   43.37    5.56    2.53    2.44    3.54    3.62
 2020 239   134   255     1   268.9   267.8     1.1     0.0  110.26  366.65    0.00    0.00    0.00  110.26  117.81    0.00    0.00   52.06    75.3    40.3    5.35    2.50    2.50    3.50    3.57    0.19    0.09    0.03    0.04    0.02    0.02    0.03    0.05   52.25   75.36   40.31    5.39    2.52    2.51    3.54    3.62
 2020 240   135   255     1   266.5   265.4     1.0     0.0  110.95  367.39    0.00    0.00    0.00  110.95  120.91    0.00    0.00   51.74    73.2    40.2    5.38    2.52    2.51    3.52    3.60    0.16    0.08    0.03    0.03    0.02    0.02    0.03    0.05   51.90   73.31   40.26    5.41    2.53    2.53    3.56    3.65
 2020 241   136   255     1   264.1   263.1     1.0     0.0  111.62  368.10    0.00    0.00    0.00  111.62  123.98    0.00    0.00   16.19    67.8    56.1    5.40    2.53    2.52    3.54    3.63    0.11    0.07    0.03    0.03    0.02    0.02    0.03    0.05   16.30   67.89   56.10    5.43    2.54    2.54    3.57    3.67
 2020 242   137   255     1   262.5   261.3     1.2     0.0  112.51  368.73    0.00    0.00    0.00  112.51  126.40    0.00    0.00   15.30    63.6    58.2    5.43    2.54    2.53    3.56    3.65    0.17    0.21    0.06    0.03    0.02    0.02    0.03    0.05   15.48   63.81   58.29    5.46    2.55    2.55    3.59    3.70
 2020 243   138   255     1   262.1   260.6     1.4     0.0  113.39  369.40    0.00    0.00    0.00  113.39  127.74    0.00    0.00   17.62    61.6    58.3    5.42    2.55    2.55    3.58    3.67    0.28    0.30    0.08    0.04    0.02    0.02    0.03    0.05   17.91   61.89   58.34    5.45    2.56    2.56    3.61    3.72
 2020 244   139   255     1   260.5   259.2     1.3     0.0  114.25  370.40    0.00    0.00    0.00  114.25  130.16    0.00    0.00   16.23    49.1    67.3    5.32    2.55    2.59    3.58    3.68    0.21    0.22    0.09    0.04    0.02    0.02    0.03    0.05   16.44   49.35   67.43    5.36    2.56    2.61    3.61    3.73
 2020 245   140   255     1   257.8   256.2     1.6     0.0  115.14  371.03    0.00    0.00    0.00  115.14  133.80    0.00    0.00   19.10    46.7    66.2    5.29    2.55    2.60    3.59    3.70    0.30    0.31    0.13    0.04    0.02    0.02    0.03    0.05   19.39   47.01   66.29    5.32    2.57    2.62    3.62    3.75
 2020 246   141   255     1   257.7   256.2     1.5     0.0  115.98  371.93    0.00    0.00    0.00  115.98  134.65    0.00    0.00   22.47    47.0    64.6    5.24    2.56    2.63    3.60    3.72    0.25    0.25    0.15    0.04    0.02    0.02    0.03    0.05   22.72   47.22   64.78    5.27    2.57    2.65    3.63    3.76
 2020 247   142   255     1   254.2   252.7     1.5     0.0  116.80  372.75    0.00    0.00    0.00  116.80  138.98    0.00    0.00   22.65    45.4    63.4    5.26    2.57    2.64    3.61    3.74    0.23    0.24    0.16    0.04    0.02    0.02    0.03    0.05   22.88   45.63   63.55    5.29    2.58    2.65    3.65    3.79
 2020 248   143   255     1   251.5   250.0     1.5     0.0  117.61  373.58    0.00    0.00    0.00  117.61  142.48    0.00    0.00   22.93    44.1    62.4    5.27    2.57    2.65    3.63    3.76    0.22    0.23    0.16    0.04    0.02    0.02    0.03    0.05   23.14   44.35   62.56    5.31    2.59    2.66    3.66    3.81
 2020 249   144   255     1   248.9   247.4     1.5     0.0  118.40  374.38    0.00    0.00    0.00  118.40  145.90    0.00    0.00   23.16    42.9    61.4    5.29    2.58    2.66    3.65    3.79    0.20    0.22    0.16    0.04    0.02    0.02    0.03    0.05   23.36   43.12   61.58    5.33    2.60    2.67    3.68    3.83
 2020 250   145   255     1   246.6   245.2     1.4     0.0  119.21  375.25    0.00    0.00    0.00  119.21  149.04    0.00    0.00   23.42    41.8    60.5    5.32    2.59    2.67    3.66    3.81    0.17    0.22    0.15    0.04    0.02    0.02    0.03    0.05   23.58   42.01   60.67    5.35    2.61    2.69    3.70    3.86
 2020 251   146   255     1   244.8   243.5     1.3     0.0  120.05  376.17    0.00    0.00    0.00  120.05  151.63    0.00    0.00   14.26    43.6    61.4    5.34    2.61    2.68    3.68    3.84    0.13    0.20    0.13    0.04    0.02    0.02    0.03    0.05   14.39   43.77   61.49    5.38    2.62    2.70    3.72    3.88
 2020 252   147   255     1   243.1   241.7     1.4     0.0  120.95  377.02    0.00    0.00    0.00  120.95  154.26    0.00    0.00   10.98    40.2    63.8    5.36    2.62    2.69    3.70    3.86    0.24    0.20    0.13    0.04    0.02    0.02    0.03    0.05   11.22   40.37   63.95    5.40    2.63    2.71    3.74    3.91
 2020 253   148   255     1   243.9   242.3     1.6     0.0  121.81  377.66    0.00    0.00    0.00  121.81  154.26    0.00    0.00    7.69    30.2    64.3   13.86    2.62    2.70    3.72    3.88    0.33    0.30    0.15    0.04    0.02    0.02    0.03    0.05    8.02   30.50   64.45   13.90    2.64    2.72    3.75    3.93
 2020 254   149   255     1   244.7   242.8     1.9     0.0  122.55  378.12    0.00    0.00    0.00  122.55  154.26    0.00    0.00    7.77    29.0    62.2   17.01    2.63    2.71    3.73    3.90    0.40    0.37    0.22    0.06    0.02    0.02    0.03    0.05    8.17   29.32   62.37   17.07    2.65    2.73    3.76    3.95
 2020 255   150   255     1   245.3   243.2     2.1     0.0  123.18  378.55    0.00    0.00    0.00  123.18  154.26    0.00    0.00    8.67    28.5    60.3   18.97    2.63    2.72    3.74    3.92    0.43    0.41    0.26    0.07    0.02    0.02    0.03    0.05    9.11   28.92   60.58   19.04    2.65    2.74    3.77    3.97
 2020 256   151   255     1   243.5   241.5     2.0     0.0  123.73  379.17    0.00    0.00    0.00  123.73  156.60    0.00    0.00   11.14    29.0    58.6   18.31    2.64    2.74    3.74    3.92    0.38    0.37    0.24    0.09    0.02    0.02    0.04    0.05   11.53   29.33   58.89   18.39    2.66    2.76    3.77    3.97
 2020 257   152   255     1   241.5   239.5     2.0     0.0  124.25  379.73    0.00    0.00    0.00  124.25  159.16    0.00    0.00   11.48    28.3    57.9   18.08    2.64    2.75    3.75    3.94    0.35    0.34    0.23    0.09    0.02    0.02    0.04    0.05   11.83   28.67   58.10   18.18    2.66    2.77    3.78    3.99
 2020 258   153   255     1   239.6   237.7     1.9     0.0  124.85  380.39    0.00    0.00    0.00  124.85  161.62    0.00    0.00   11.82    27.7    57.1   17.88    2.65    2.76    3.76    3.96    0.32    0.31    0.22    0.10    0.02    0.02    0.04    0.05   12.14   28.05   57.35   17.98    2.67    2.78    3.79    4.01
 2020 259   154   255     1   238.5   236.7     1.8     0.0  125.57  381.19    0.00    0.00    0.00  125.57  163.45    0.00    0.00    7.13    25.5    57.4   20.31    2.66    2.76    3.77    3.98    0.28    0.29    0.21    0.11    0.02    0.02    0.04    0.05    7.40   25.75   57.58   20.42    2.68    2.78    3.81    4.03
 2020 260   155   255     1   237.1   235.0     2.1     0.0  126.41  381.80    0.00    0.00    0.00  126.41  165.69    0.00    0.00    9.38    25.1    54.2   21.85    2.66    2.80    3.77    3.99    0.35    0.36    0.27    0.11    0.02    0.02    0.03    0.05    9.74   25.50   54.44   21.97    2.68    2.82    3.81    4.04
 2020 261   156   255     1   235.9   234.0     2.0     0.0  127.30  382.77    0.00    0.00    0.00  127.30  167.74    0.00    0.00   11.31    25.2    53.1   21.39    2.67    2.81    3.78    4.01    0.28    0.40    0.22    0.12    0.02    0.02    0.03    0.05   11.60   25.57   53.27   21.52    2.69    2.83    3.82    4.06
 2020 262   157   255     1   234.8   233.0     1.8     0.0  128.18  383.81    0.00    0.00    0.00  128.18  169.75    0.00    0.00   13.59    25.8    51.7   20.73    2.68    2.84    3.78    4.02    0.25    0.31    0.20    0.13    0.02    0.02    0.03    0.05   13.84   26.09   51.93   20.86    2.70    2.86    3.82    4.06
 2020 263   158   255     1   233.9   232.2     1.7     0.0  129.05  384.75    0.00    0.00    0.00  129.05  171.50    0.00    0.00   13.94    25.4    51.3   20.59    2.69    2.85    3.80    4.04    0.24    0.27    0.19    0.13    0.02    0.02    0.03    0.05   14.19   25.72   51.46   20.72    2.71    2.87    3.83    4.09
 2020 264   159   255     1   232.9   231.2     1.7     0.0  129.91  385.66    0.00    0.00    0.00  129.91  173.43    0.00    0.00   14.26    25.1    50.8   20.43    2.70    2.86    3.82    4.06    0.23    0.25    0.18    0.13    0.02    0.02    0.03    0.05   14.49   25.31   50.95   20.56    2.72    2.88    3.85    4.11
 2020 265   160   255     1   231.7   230.1     1.7     0.0  130.77  386.56    0.00    0.00    0.00  130.77  175.44    0.00    0.00    8.44    24.2    52.0   21.15    2.71    2.87    3.83    4.09    0.20    0.24    0.18    0.13    0.02    0.02    0.03    0.05    8.65   24.43   52.20   21.28    2.73    2.89    3.86    4.14
 2020 266   161   255     1   230.6   228.8     1.8     0.0  131.67  387.30    0.00    0.00    0.00  131.67  177.44    0.00    0.00   11.02    24.1    49.8   21.63    2.72    2.91    3.83    4.09    0.30    0.32    0.18    0.13    0.02    0.02    0.03    0.05   11.32   24.44   49.99   21.76    2.74    2.93    3.86    4.14
 2020 267   162   255     1   229.4   227.7     1.7     0.0  132.58  388.31    0.00    0.00    0.00  132.58  179.57    0.00    0.00   13.16    24.2    48.6   21.12    2.73    2.92    3.84    4.11    0.25    0.27    0.18    0.13    0.02    0.02    0.03    0.05   13.42   24.50   48.79   21.25    2.75    2.94    3.87    4.16
 2020 268   163   255     1   228.5   226.9     1.7     0.0  133.51  389.29    0.00    0.00    0.00  133.51  181.35    0.00    0.00   13.50    23.9    48.2   20.97    2.74    2.93    3.85    4.13    0.23    0.24    0.18    0.13    0.02    0.02    0.03    0.05   13.74   24.14   48.34   21.10    2.76    2.95    3.88    4.18
 2020 269   164   255     1   227.4   225.8     1.6     0.0  134.46  390.30    0.00    0.00    0.00  134.46  183.42    0.00    0.00   13.79    23.5    47.6   20.80    2.75    2.94    3.87    4.16    0.21    0.22    0.17    0.13    0.02    0.02    0.03    0.05   14.00   23.74   47.82   20.93    2.77    2.96    3.90    4.21
 2020 270   165   255     1   226.4   224.8     1.6     0.0  135.44  391.33    0.00    0.00    0.00  135.44  185.43    0.00    0.00   14.07    23.1    47.1   20.64    2.76    2.95    3.89    4.19    0.19    0.21    0.17    0.12    0.02    0.02    0.03    0.05   14.26   23.35   47.31   20.76    2.78    2.97    3.92    4.23
 2020 271   166   255     1   225.8   224.3     1.5     0.0  136.43  392.37    0.00    0.00    0.00  136.43  187.00    0.00    0.00   14.38    22.9    46.8   20.52    2.77    2.96    3.91    4.21    0.16    0.21    0.16    0.12    0.02    0.02    0.03    0.05   14.54   23.07   46.94   20.64    2.79    2.98    3.94    4.26
 2020 272   167   255     1   226.7   225.2     1.5     0.0  137.38  393.33    0.00    0.00    0.00  137.38  187.00    0.00    0.00   14.88    22.9    46.8   20.59    2.78    2.97    3.92    4.24    0.14    0.21    0.16    0.12    0.02    0.02    0.03    0.05   15.02   23.13   46.97   20.71    2.80    2.99    3.95    4.28
 2020 273   168   255     1   227.6   226.1     1.5     0.0  138.26  394.19    0.00    0.00    0.00  138.26  187.00    0.00    0.00   15.36    23.0    46.8   20.65    2.79    2.98    3.94    4.26    0.13    0.21    0.17    0.12    0.02    0.02    0.03    0.05   15.49   23.19   47.00   20.77    2.81    3.00    3.97    4.31
 2020 274   169   255     1   228.5   226.9     1.5     0.0  139.10  395.01    0.00    0.00    0.00  139.10  187.00    0.00    0.00   15.83    23.0    46.9   20.70    2.80    2.99    3.96    4.29    0.12    0.22    0.17    0.12    0.02    0.02    0.03    0.05   15.95   23.23   47.02   20.82    2.82    3.01    3.99    4.33
 2020 275   170   255     1   229.2   227.7     1.6     0.0  139.87  395.75    0.00    0.00    0.00  139.87  187.00    0.00    0.00   16.28    23.0    46.9   20.74    2.81    3.00    3.97    4.31    0.11    0.22    0.17    0.13    0.02    0.02    0.03    0.05   16.40   23.26   47.04   20.87    2.83    3.02    4.00    4.36
 2020 276   171   255     1   229.9   228.3     1.6     0.0  140.55  396.42    0.00    0.00    0.00  140.55  187.00    0.00    0.00   16.72    23.0    46.9   20.78    2.82    3.01    3.99    4.33    0.11    0.23    0.18    0.13    0.02    0.02    0.03    0.05   16.83   23.27   47.04   20.91    2.84    3.03    4.02    4.38
 2020 277   172   255     1   230.6   229.0     1.6     0.0  141.23  397.10    0.00    0.00    0.00  141.23  187.00    0.00    0.00   17.16    23.1    46.9   20.82    2.82    3.02    4.00    4.35    0.10    0.22    0.18    0.13    0.02    0.02    0.03    0.05   17.26   23.29   47.04   20.95    2.84    3.04    4.03    4.40

*DSSAT Cropping System Model Ver. 4.7.5.035 -develop  JUN 14, 2021 14:17:00

*RUN   2        : 20 IRRIG, PETPEN KCB..... MZCER047 KSRT2001    2
 MODEL          : MZCER047 - Maize
 EXPERIMENT     : KSRT2001 SB ARM 2020 KS, IRRIGATED
 DATA PATH      :
 TREATMENT  2   : 20 IRRIG, PETPEN KCB..... MZCER047
  
!                                                                                                                                      NO3 (ppm) at soil dep. (cm):                                    NH4 (ppm) at soil dep. (cm):                                    Total Inorganic N @dep(ppm):
!                                                                                                                                       0-5    5-15   15-29   29-43   43-53   53-64  64-132 132-201     0-5    5-15   15-29   29-43   43-53   53-64  64-132 132-201     0-5    5-15   15-29   29-43   43-53   53-64  64-132 132-201
@YEAR DOY   DAS  NAPC  NI#M    NIAD    NITD    NHTD   NURTD    NMNC    NITC    NDNC    NIMC    AMLC   NNMNC    NUCM    NLCC    TDNC    NI1D    NI2D    NI3D    NI4D    NI5D    NI6D    NI7D    NI8D    NH1D    NH2D    NH3D    NH4D    NH5D    NH6D    NH7D    NH8D    NT1D    NT2D    NT3D    NT4D    NT5D    NT6D    NT7D    NT8D    
 2020 105     0     0     0    22.1    19.6     2.5     0.0    0.00    0.00    0.00    0.00    0.00    0.00    0.00    0.00    0.00    0.80     0.8     0.8    0.80    0.80    0.80    0.80    0.80    0.10    0.10    0.10    0.10    0.10    0.10    0.10    0.10    0.90    0.90    0.90    0.90    0.90    0.90    0.90    0.90
 2020 106     1     0     0    22.6    20.2     2.4     0.0    0.55    0.64    0.00    0.00    0.00    0.55    0.00    0.00    0.00    0.83     0.8     0.8    0.83    0.83    0.83    0.83    0.83    0.14    0.14    0.12    0.12    0.10    0.10    0.09    0.09    0.96    0.96    0.95    0.95    0.92    0.92    0.91    0.91
 2020 107     2     0     0    23.2    20.9     2.3     0.0    1.11    1.26    0.00    0.00    0.00    1.11    0.00    0.00    0.00    0.86     0.9     0.9    0.86    0.85    0.85    0.85    0.85    0.16    0.16    0.14    0.14    0.09    0.09    0.08    0.08    1.02    1.02    0.99    0.99    0.94    0.94    0.93    0.93
 2020 108     3     0     0    23.7    21.5     2.2     0.0    1.66    1.86    0.00    0.00    0.00    1.66    0.00    0.00    0.00    0.90     0.9     0.9    0.89    0.87    0.87    0.87    0.87    0.18    0.18    0.15    0.15    0.09    0.09    0.07    0.07    1.09    1.08    1.04    1.04    0.96    0.96    0.94    0.94
 2020 109     4     0     0    24.2    22.0     2.2     0.0    2.18    2.42    0.00    0.00    0.00    2.18    0.00    0.00    0.00    0.95     0.9     0.9    0.93    0.90    0.90    0.89    0.89    0.20    0.19    0.15    0.15    0.09    0.09    0.07    0.07    1.14    1.14    1.08    1.08    0.98    0.98    0.95    0.96
 2020 110     5     0     0    24.8    22.6     2.2     0.0    2.73    3.00    0.00    0.00    0.00    2.73    0.00    0.00    0.00    1.00     1.0     1.0    0.97    0.92    0.92    0.90    0.91    0.21    0.21    0.16    0.16    0.09    0.09    0.06    0.06    1.20    1.20    1.13    1.13    1.00    1.00    0.97    0.97
 2020 111     6     0     0    25.4    23.2     2.2     0.0    3.32    3.60    0.00    0.00    0.00    3.32    0.00    0.00    0.00    1.06     1.1     1.0    1.01    0.94    0.94    0.92    0.92    0.22    0.22    0.17    0.17    0.08    0.08    0.06    0.06    1.27    1.27    1.18    1.18    1.02    1.02    0.98    0.98
 2020 112     7     0     0    26.0    23.8     2.2     0.0    3.95    4.23    0.00    0.00    0.00    3.95    0.00    0.00    0.00    1.12     1.1     1.1    1.06    0.96    0.96    0.94    0.94    0.22    0.22    0.17    0.17    0.08    0.08    0.06    0.06    1.34    1.34    1.23    1.23    1.05    1.05    1.00    1.00
 2020 113     8     0     0    26.6    24.5     2.2     0.0    4.59    4.88    0.00    0.00    0.00    4.59    0.00    0.00    0.00    1.19     1.2     1.1    1.11    0.99    0.99    0.95    0.96    0.23    0.23    0.17    0.17    0.08    0.08    0.06    0.06    1.42    1.42    1.29    1.28    1.07    1.07    1.01    1.01
 2020 114     9     0     0    27.3    25.2     2.2     0.0    5.28    5.57    0.00    0.00    0.00    5.28    0.00    0.00    0.00    1.27     1.3     1.2    1.17    1.02    1.02    0.97    0.98    0.23    0.23    0.18    0.18    0.08    0.08    0.06    0.06    1.50    1.50    1.35    1.34    1.10    1.10    1.03    1.03
 2020 115    10     0     0    28.0    25.9     2.2     0.0    6.00    6.30    0.00    0.00    0.00    6.00    0.00    0.00    0.00    1.35     1.3     1.2    1.23    1.04    1.04    0.99    0.99    0.23    0.23    0.18    0.18    0.08    0.08    0.05    0.05    1.59    1.58    1.41    1.41    1.13    1.13    1.04    1.05
 2020 116    11     0     0    28.7    26.6     2.1     0.0    6.70    7.00    0.00    0.00    0.00    6.70    0.00    0.00    0.00    1.43     1.4     1.3    1.29    1.07    1.07    1.01    1.01    0.24    0.24    0.18    0.18    0.08    0.08    0.05    0.05    1.67    1.66    1.47    1.47    1.15    1.15    1.06    1.06
 2020 117    12     0     0    29.4    27.3     2.1     0.0    7.37    7.67    0.00    0.00    0.00    7.37    0.00    0.00    0.00    1.51     1.5     1.3    1.34    1.10    1.10    1.02    1.03    0.24    0.24    0.18    0.18    0.08    0.08    0.05    0.05    1.75    1.74    1.53    1.52    1.18    1.18    1.08    1.08
 2020 118    13     0     0    30.1    28.0     2.1     0.0    8.10    8.41    0.00    0.00    0.00    8.10    0.00    0.00    0.00    1.60     1.6     1.4    1.41    1.13    1.12    1.04    1.04    0.24    0.24    0.18    0.18    0.08    0.08    0.05    0.05    1.84    1.83    1.59    1.59    1.21    1.21    1.09    1.10
 2020 119    14     0     0    30.9    28.8     2.1     0.0    8.91    9.24    0.00    0.00    0.00    8.91    0.00    0.00    0.00    1.70     1.7     1.5    1.48    1.16    1.15    1.06    1.06    0.23    0.23    0.18    0.18    0.08    0.08    0.05    0.05    1.94    1.93    1.67    1.66    1.24    1.24    1.11    1.11
 2020 120    15     0     0    31.8    29.7     2.1     0.0    9.74   10.08    0.00    0.00    0.00    9.74    0.00    0.00    0.00    1.81     1.8     1.6    1.55    1.19    1.19    1.08    1.08    0.23    0.23    0.18    0.18    0.08    0.08    0.05    0.05    2.04    2.03    1.74    1.73    1.27    1.27    1.13    1.13
 2020 121    16     0     0    32.6    30.6     2.1     0.0   10.62   10.98    0.00    0.00    0.00   10.62    0.00    0.00    0.00    1.92     1.9     1.6    1.63    1.22    1.22    1.10    1.10    0.23    0.23    0.17    0.18    0.08    0.08    0.05    0.05    2.15    2.13    1.82    1.81    1.30    1.30    1.15    1.15
 2020 122    17     0     0    33.6    31.6     2.0     0.0   11.58   12.00    0.00    0.00    0.00   11.58    0.00    0.00    0.00    2.05     2.0     1.7    1.72    1.26    1.26    1.12    1.12    0.22    0.22    0.17    0.17    0.08    0.08    0.05    0.05    2.27    2.25    1.91    1.89    1.34    1.34    1.17    1.17
 2020 123    18     0     0    34.6    32.6     2.0     0.0   12.59   13.06    0.00    0.00    0.00   12.59    0.00    0.00    0.00    2.19     2.2     1.8    1.82    1.31    1.30    1.15    1.14    0.21    0.21    0.16    0.16    0.08    0.08    0.05    0.05    2.40    2.38    2.00    1.98    1.38    1.38    1.20    1.19
 2020 124    19     0     0    35.6    33.6     2.0     0.0   13.58   14.07    0.00    0.00    0.00   13.58    0.00    0.00    0.00    2.32     2.3     1.9    1.91    1.35    1.34    1.17    1.16    0.21    0.21    0.16    0.16    0.07    0.08    0.05    0.05    2.52    2.50    2.09    2.07    1.42    1.41    1.22    1.21
 2020 125    20     0     0    36.6    34.6     2.0     0.0   14.57   15.05    0.00    0.00    0.00   14.57    0.00    0.00    0.00    2.44     2.4     2.0    1.99    1.38    1.38    1.19    1.18    0.21    0.21    0.16    0.16    0.07    0.08    0.05    0.05    2.65    2.62    2.18    2.16    1.46    1.45    1.24    1.24
 2020 126    21     0     0    37.6    35.6     2.0     0.0   15.56   16.06    0.00    0.00    0.00   15.56    0.00    0.00    0.00    2.57     2.5     2.1    2.08    1.42    1.42    1.22    1.20    0.21    0.21    0.16    0.16    0.07    0.08    0.05    0.05    2.77    2.75    2.27    2.25    1.50    1.49    1.27    1.26
 2020 127    22     0     0    38.5    36.6     2.0     0.0   16.52   17.00    0.00    0.00    0.00   16.52    0.00    0.00    0.00    2.68     2.7     2.2    2.17    1.46    1.45    1.24    1.23    0.21    0.21    0.16    0.16    0.07    0.08    0.05    0.05    2.89    2.87    2.36    2.33    1.54    1.53    1.29    1.28
 2020 128    23     0     0    39.4    37.4     2.0     0.0   17.40   17.85    0.00    0.00    0.00   17.40    0.00    0.00    0.00    2.79     2.8     2.3    2.24    1.49    1.48    1.26    1.24    0.21    0.22    0.17    0.17    0.08    0.08    0.05    0.05    3.00    2.98    2.44    2.41    1.57    1.56    1.31    1.30
 2020 129    24     0     0    40.3    38.3     2.0     0.0   18.29   18.71    0.00    0.00    0.00   18.29    0.00    0.00    0.00    2.89     2.9     2.4    2.32    1.53    1.52    1.28    1.26    0.22    0.22    0.17    0.17    0.08    0.08    0.05    0.05    3.11    3.08    2.52    2.49    1.60    1.59    1.33    1.31
 2020 130    25     0     0    41.1    39.1     2.0     0.0   19.11   19.51    0.00    0.00    0.00   19.11    0.00    0.00    0.00    2.99     3.0     2.4    2.38    1.56    1.55    1.30    1.28    0.22    0.22    0.17    0.17    0.08    0.08    0.05    0.05    3.21    3.18    2.59    2.56    1.64    1.63    1.35    1.33
 2020 131    26     0     0    41.9    39.8     2.1     0.0   19.89   20.27    0.00    0.00    0.00   19.89    0.00    0.00    0.00    3.08     3.1     2.5    2.45    1.59    1.58    1.31    1.30    0.23    0.23    0.17    0.17    0.08    0.08    0.05    0.05    3.31    3.28    2.66    2.63    1.67    1.66    1.37    1.35
 2020 132    27     0     0    42.6    40.5     2.1     0.0   20.63   20.99    0.00    0.00    0.00   20.63    0.00    0.00    0.00    3.04     3.2     2.6    2.51    1.61    1.60    1.33    1.31    0.23    0.23    0.18    0.18    0.08    0.08    0.05    0.05    3.27    3.43    2.73    2.69    1.69    1.68    1.38    1.37
 2020 133    28     0     0    43.3    41.1     2.1     0.0   21.26   21.58    0.00    0.00    0.00   21.26    0.00    0.00    0.00    2.98     3.3     2.6    2.56    1.64    1.63    1.35    1.33    0.28    0.23    0.18    0.18    0.08    0.08    0.05    0.05    3.25    3.55    2.78    2.74    1.72    1.71    1.40    1.38
 2020 134    29     0     0    43.7    41.6     2.1     0.0   21.74   22.05    0.00    0.00    0.00   21.74    0.00    0.00    0.00    2.94     3.4     2.6    2.61    1.66    1.65    1.36    1.34    0.31    0.23    0.18    0.18    0.08    0.08    0.05    0.05    3.25    3.63    2.82    2.78    1.74    1.73    1.41    1.39
 2020 135    30     0     0    44.2    42.1     2.2     0.0   22.23   22.53    0.00    0.00    0.00   22.23    0.00    0.00    0.00    2.94     3.5     2.7    2.65    1.67    1.66    1.37    1.36    0.33    0.23    0.18    0.18    0.08    0.08    0.05    0.05    3.27    3.69    2.86    2.82    1.75    1.74    1.42    1.41
 2020 136    31     0     0    44.8    42.6     2.2     0.0   22.76   23.04    0.00    0.00    0.00   22.76    0.00    0.00    0.00    2.89     3.6     2.7    2.69    1.69    1.68    1.38    1.37    0.36    0.23    0.18    0.18    0.08    0.08    0.05    0.05    3.25    3.79    2.90    2.87    1.77    1.76    1.44    1.42
 2020 137    32     0     0    45.3    43.1     2.2     0.0   23.33   23.58    0.00    0.00    0.00   23.33    0.00    0.00    0.00    2.52     3.8     2.8    2.74    1.72    1.71    1.40    1.38    0.38    0.23    0.18    0.18    0.08    0.08    0.05    0.05    2.91    4.06    2.95    2.91    1.80    1.79    1.45    1.44
 2020 138    33     0     0    46.0    43.8     2.2     0.0   24.03   24.24    0.01    0.00    0.00   24.03    0.00    0.00    0.00    2.43     4.0     2.8    2.80    1.74    1.73    1.41    1.40    0.43    0.24    0.18    0.18    0.08    0.08    0.05    0.05    2.86    4.20    3.01    2.98    1.82    1.81    1.47    1.45
 2020 139    34     0     0    46.9    44.6     2.2     0.0   24.87   25.08    0.02    0.00    0.00   24.87    0.00    0.00    0.00    2.45     4.1     2.9    2.87    1.78    1.76    1.43    1.42    0.47    0.23    0.18    0.18    0.08    0.08    0.05    0.05    2.92    4.32    3.09    3.05    1.86    1.84    1.49    1.47
 2020 140    35     0     0    47.7    45.5     2.2     0.0   25.77   25.99    0.02    0.00    0.00   25.77    0.00    0.00    0.00    2.52     4.2     3.0    2.95    1.81    1.80    1.46    1.44    0.48    0.23    0.17    0.17    0.08    0.08    0.05    0.05    3.01    4.44    3.17    3.13    1.89    1.88    1.51    1.49
 2020 141    36     0     0    48.7    46.5     2.2     0.0   26.69   26.94    0.02    0.00    0.00   26.69    0.00    0.00    0.00    2.63     4.3     3.1    3.04    1.85    1.84    1.48    1.46    0.49    0.22    0.17    0.17    0.08    0.08    0.05    0.05    3.12    4.55    3.26    3.21    1.93    1.91    1.53    1.51
 2020 142    37     0     0    49.6    47.4     2.2     0.0   27.61   27.86    0.02    0.00    0.00   27.61    0.00    0.00    0.00    1.23     3.4     4.5    3.12    1.89    1.87    1.50    1.48    0.50    0.22    0.17    0.17    0.08    0.08    0.05    0.05    1.73    3.60    4.72    3.29    1.96    1.95    1.55    1.53
 2020 143    38     0     0    50.5    48.2     2.3     0.0   28.55   28.67    0.03    0.00    0.00   28.55    0.00    0.00    0.00    1.24     3.2     4.6    3.37    1.92    1.91    1.52    1.50    0.54    0.30    0.17    0.17    0.08    0.08    0.05    0.05    1.78    3.54    4.79    3.54    2.00    1.99    1.57    1.55
 2020 144    39     0     0    51.4    49.0     2.4     0.0   29.48   29.54    0.03    0.00    0.00   29.48    0.00    0.00    0.00    1.32     3.2     4.7    3.53    1.96    1.94    1.54    1.52    0.55    0.36    0.17    0.17    0.08    0.08    0.05    0.05    1.87    3.58    4.86    3.70    2.04    2.02    1.59    1.57
 2020 145    40   255     1   213.3    50.0   163.4    94.1   30.45   30.47    0.03    0.00    0.00   30.45    0.00    0.00    0.00    1.43     3.3     4.8    3.65    2.00    1.98    1.56    1.54  129.90   64.46    0.16    0.17    0.08    0.08    0.05    0.05  131.34   67.74    4.94    3.82    2.07    2.06    1.62    1.59
 2020 146    41   255     1   273.2    88.4   184.8    35.1   31.40   68.92    0.03    0.00    0.00   31.40    0.00    0.00    0.00   31.96    18.1     4.9    3.74    2.03    2.02    1.59    1.56  146.41   73.35    0.16    0.17    0.08    0.08    0.05    0.05  178.37   91.47    5.04    3.90    2.11    2.09    1.64    1.61
 2020 147    42   255     1   295.2   127.8   167.3    14.0   32.31  108.45    0.05    0.00    0.00   32.31    0.00    0.00    0.00   63.05    33.7     4.9    3.82    2.07    2.05    1.61    1.58  131.77   66.54    0.29    0.17    0.08    0.08    0.05    0.05  194.82  100.20    5.19    3.98    2.15    2.13    1.66    1.63
 2020 148    43   255     1   304.3   162.8   141.5     5.6   33.21  143.55    0.09    0.00    0.00   33.21    0.00    0.00    0.00   61.67    49.3    12.3    6.07    2.10    2.09    1.63    1.60  110.81   56.23    0.36    0.17    0.08    0.08    0.05    0.05  172.48  105.54   12.62    6.24    2.18    2.16    1.68    1.65
 2020 149    44   255     1   307.4   180.6   126.8     2.6   34.08  162.05    0.76    0.00    0.00   34.08    0.00    0.00    0.00   72.25    54.8    13.6    7.14    2.14    2.12    1.65    1.62   97.11   50.20    1.20    0.19    0.08    0.08    0.05    0.05  169.36  104.98   14.78    7.32    2.21    2.20    1.70    1.67
 2020 150    45   255     1   309.2   201.4   107.8     1.2   34.93  183.17    1.06    0.00    0.00   34.93    0.00    0.00    0.00   86.59    62.2    14.4    7.58    2.26    2.15    1.67    1.63   81.25   42.44    1.50    0.25    0.08    0.08    0.05    0.05  167.83  104.63   15.89    7.83    2.34    2.23    1.72    1.69
 2020 151    46   255     1   310.5   222.3    88.2     0.6   35.81  204.20    1.22    0.00    0.00   35.81    0.00    0.00    0.00  101.55    69.9    14.9    7.78    2.43    2.18    1.69    1.65   65.57   34.56    1.55    0.26    0.08    0.08    0.05    0.05  167.11  104.50   16.48    8.04    2.50    2.26    1.74    1.71
 2020 152    47   255     1   311.7   244.6    67.1     0.3   36.81  226.60    1.30    0.00    0.00   36.81    0.00    0.00    0.00  118.13    78.5    15.2    7.92    2.47    2.23    1.71    1.68   49.01   26.15    1.44    0.23    0.08    0.08    0.05    0.05  167.14  104.66   16.67    8.15    2.54    2.30    1.76    1.73
 2020 153    48   255     1   312.7   264.1    48.7     0.1   37.89  246.26    1.40    0.00    0.00   37.89    0.00    0.00    0.00  132.42    85.9    15.5    8.07    2.51    2.27    1.74    1.70   34.74   18.82    1.27    0.20    0.07    0.07    0.05    0.05  167.16  104.76   16.82    8.26    2.59    2.34    1.79    1.75
 2020 154    49   255     1   313.8   280.8    33.0     0.0   39.06  263.10    1.53    0.00    0.00   39.06    0.00    0.00    0.00  144.37    92.2    15.9    8.21    2.56    2.32    1.77    1.72   22.80   12.61    1.06    0.17    0.07    0.07    0.05    0.05  167.17  104.84   16.94    8.37    2.63    2.39    1.81    1.77
 2020 155    50   255     1   314.8   293.7    21.2     0.0   40.31  276.17    1.68    0.00    0.00   40.31    0.00    0.00    0.00  153.30    97.0    16.2    8.34    2.62    2.37    1.80    1.75   13.87    7.90    0.87    0.15    0.07    0.07    0.05    0.05  167.17  104.92   17.06    8.49    2.68    2.44    1.84    1.80
 2020 156    51   255     1   315.9   302.5    13.4     0.0   41.59  285.18    1.84    0.00    0.00   41.59    0.00    0.00    0.00  157.84   100.3    16.8    8.54    2.67    2.42    1.83    1.78    8.11    4.80    0.71    0.14    0.06    0.06    0.04    0.05  165.95  105.10   17.48    8.67    2.73    2.49    1.87    1.82
 2020 157    52   255     1   317.0   308.0     8.9     0.0   42.89  290.88    2.01    0.00    0.00   42.89    0.00    0.00    0.00  161.11   102.2    17.0    8.58    2.72    2.47    1.86    1.80    4.78    2.95    0.60    0.21    0.06    0.06    0.04    0.05  165.89  105.19   17.60    8.79    2.79    2.54    1.90    1.85
 2020 158    53   255     1   318.3   316.4     1.9     0.0   44.21  299.26    2.01    0.00    0.00   44.21    0.00    0.00    0.00  104.07   102.4    37.6   12.98    4.59    2.50    1.88    1.82    0.17    0.17    0.14    0.26    0.06    0.06    0.04    0.05  104.24  102.55   37.70   13.24    4.65    2.56    1.93    1.87
 2020 159    54   255     1   319.6   317.3     2.3     0.0   45.54  300.16    2.01    0.00    0.00   45.54    0.00    0.00    0.00  111.92    96.1    37.7   13.74    5.56    3.07    1.91    1.85    0.27    0.28    0.23    0.32    0.06    0.06    0.04    0.05  112.19   96.39   37.94   14.06    5.62    3.13    1.95    1.89
 2020 160    55   255     1   320.9   318.5     2.4     0.0   46.88  301.37    2.01    0.00    0.00   46.88    0.00    0.00    0.00  125.69    91.7    36.4   13.58    5.68    3.19    1.93    1.87    0.17    0.32    0.28    0.35    0.06    0.06    0.04    0.05  125.86   91.98   36.67   13.93    5.74    3.25    1.97    1.91
 2020 161    56   255     1   322.3   320.3     2.0     0.0   48.23  303.17    2.01    0.00    0.00   48.23    0.00    0.00    0.00   97.10    92.9    44.6   15.59    6.21    3.39    1.95    1.88    0.17    0.17    0.13    0.35    0.06    0.06    0.04    0.05   97.27   93.04   44.75   15.94    6.27    3.45    1.99    1.93
 2020 162    57   255     1   323.5   321.0     2.4     0.0   49.48  303.99    2.09    0.00    0.00   49.48    0.00    0.00    0.00  100.44    88.1    44.9   16.76    6.92    4.10    1.99    1.90    0.28    0.28    0.21    0.38    0.08    0.06    0.04    0.05  100.72   88.42   45.08   17.13    7.00    4.17    2.03    1.95
 2020 163    58   255     1   324.6   322.0     2.6     0.0   50.66  305.01    2.11    0.00    0.00   50.66    0.00    0.00    0.00  107.00    86.2    44.1   16.84    6.96    4.15    2.01    1.93    0.20    0.33    0.27    0.39    0.09    0.07    0.04    0.05  107.20   86.50   44.35   17.23    7.05    4.22    2.06    1.97
 2020 164    59   255     1   325.7   323.4     2.3     0.0   51.80  306.41    2.12    0.00    0.00   51.80    0.00    0.00    0.00  118.77    83.0    43.1   16.57    6.84    4.12    2.03    1.94    0.19    0.22    0.18    0.40    0.09    0.07    0.05    0.05  118.96   83.26   43.24   16.96    6.93    4.19    2.07    1.99
 2020 165    60   255     1   326.9   324.9     2.0     0.0   52.94  307.91    2.12    0.00    0.00   52.94    0.00    0.00    0.00  131.02    79.7    41.9   16.45    6.73    4.09    2.05    1.95    0.19    0.20    0.15    0.23    0.08    0.07    0.05    0.05  131.21   79.90   42.08   16.68    6.80    4.16    2.09    2.00
 2020 166    61   255     1   328.0   326.1     1.9     0.0   54.07  309.15    2.12    0.00    0.00   54.07    0.00    0.00    0.00  132.63    79.2    42.0   16.60    6.77    4.14    2.07    1.98    0.19    0.19    0.15    0.17    0.07    0.07    0.05    0.05  132.81   79.43   42.11   16.77    6.84    4.21    2.12    2.03
 2020 167    62   255     1   329.2   327.5     1.7     0.0   55.30  310.49    2.12    0.00    0.00   55.30    0.00    0.00    0.00   76.23    93.7    50.4   18.54    7.29    4.30    2.10    2.00    0.17    0.18    0.14    0.15    0.07    0.07    0.05    0.05   76.41   93.87   50.57   18.69    7.36    4.37    2.15    2.05
 2020 168    63   255     1   330.5   328.3     2.2     0.0   56.60  311.35    2.12    0.00    0.00   56.60    0.00    0.00    0.00   94.19    85.7    49.0   18.98    7.67    4.47    2.16    2.01    0.28    0.28    0.22    0.22    0.08    0.06    0.04    0.05   94.47   85.98   49.23   19.20    7.75    4.54    2.20    2.06
 2020 169    64   255     1   331.8   330.2     1.7     0.0   57.91  313.18    2.12    0.00    0.00   57.91    0.00    0.00    0.00  111.85    81.4    47.2   18.53    7.45    4.41    2.18    2.03    0.17    0.17    0.13    0.14    0.06    0.06    0.04    0.05  112.02   81.61   47.30   18.67    7.51    4.47    2.22    2.07
 2020 170    65   255     1   333.1   331.4     1.6     0.0   59.23  314.53    2.12    0.00    0.00   59.23    0.07    0.00    0.00  113.46    81.0    47.2   18.64    7.50    4.46    2.21    2.05    0.17    0.17    0.13    0.13    0.06    0.06    0.04    0.05  113.62   81.14   47.34   18.77    7.56    4.52    2.25    2.10
[...]
 2020 217   112   255     1   297.8   296.5     1.3     0.0   95.76  351.87    0.00    0.00    0.00   95.76   74.41    0.00    0.00   52.37    92.2    50.1    4.82    2.13    1.74    3.22    3.06    0.19    0.17    0.07    0.04    0.02    0.03    0.04    0.05   52.55   92.41   50.16    4.86    2.15    1.77    3.26    3.11
 2020 218   113   255     1   298.5   297.2     1.3     0.0   96.45  352.58    0.00    0.00    0.00   96.45   74.41    0.00    0.00   54.04    91.7    50.0    4.84    2.14    1.76    3.24    3.09    0.20    0.15    0.07    0.04    0.02    0.03    0.04    0.05   54.24   91.84   50.11    4.88    2.16    1.78    3.29    3.13
 2020 219   114   255     1   299.2   297.9     1.3     0.0   97.12  353.28    0.00    0.00    0.00   97.12   74.41    0.00    0.00   41.51    98.2    50.0    4.86    2.15    1.77    3.27    3.11    0.20    0.13    0.07    0.04    0.02    0.03    0.04    0.05   41.70   98.36   50.06    4.90    2.17    1.80    3.31    3.16
 2020 220   115   255     1   299.8   298.5     1.3     0.0   97.82  353.94    0.00    0.00    0.00   97.82   74.41    0.00    0.00   43.11    97.7    49.9    4.88    2.16    1.79    3.29    3.13    0.21    0.15    0.07    0.04    0.02    0.03    0.04    0.05   43.32   97.84   50.01    4.92    2.18    1.82    3.33    3.18
 2020 221   116   255     1   300.5   299.2     1.3     0.0   98.52  354.66    0.00    0.00    0.00   98.52   74.41    0.00    0.00   44.89    97.1    49.9    4.90    2.17    1.80    3.31    3.15    0.21    0.14    0.07    0.04    0.02    0.03    0.04    0.05   45.10   97.23   49.96    4.94    2.20    1.83    3.35    3.20
 2020 222   117   255     1   301.2   300.0     1.2     0.0   99.22  355.43    0.00    0.00    0.00   99.22   74.41    0.00    0.00   46.72    96.5    49.8    4.92    2.19    1.82    3.33    3.18    0.18    0.12    0.07    0.04    0.02    0.03    0.04    0.05   46.90   96.59   49.91    4.96    2.21    1.85    3.37    3.23
 2020 223   118   255     1   301.9   300.8     1.2     0.0   99.91  356.21    0.00    0.00    0.00   99.91   74.41    0.00    0.00   48.55    95.8    49.8    4.94    2.20    1.84    3.35    3.20    0.13    0.09    0.06    0.04    0.02    0.03    0.04    0.05   48.68   95.93   49.86    4.98    2.22    1.87    3.39    3.25
 2020 224   119   255     1   302.3   301.2     1.1     0.0  100.59  356.95    0.00    0.00    0.00  100.59   74.73    0.00    0.00   50.31    95.0    49.7    4.97    2.21    1.86    3.38    3.23    0.10    0.07    0.06    0.04    0.02    0.03    0.04    0.05   50.41   95.11   49.75    5.00    2.23    1.88    3.42    3.28
 2020 225   120   255     1   301.0   300.0     1.0     0.0  101.27  357.67    0.00    0.00    0.00  101.27   76.70    0.00    0.00   51.99    93.4    49.2    4.99    2.22    1.87    3.40    3.25    0.09    0.06    0.05    0.04    0.02    0.02    0.04    0.05   52.08   93.48   49.28    5.03    2.24    1.89    3.44    3.30
 2020 226   121   255     1   301.6   300.6     1.0     0.0  101.93  358.35    0.00    0.00    0.00  101.93   76.72    0.00    0.00   53.64    92.8    49.2    5.01    2.24    1.88    3.43    3.28    0.08    0.06    0.05    0.04    0.02    0.02    0.04    0.05   53.71   92.86   49.23    5.05    2.26    1.91    3.46    3.33
 2020 227   122   255     1   301.8   300.8     1.0     0.0  102.58  359.01    0.00    0.00    0.00  102.58   77.18    0.00    0.00   55.25    92.0    49.0    5.04    2.25    1.90    3.45    3.30    0.07    0.06    0.05    0.04    0.02    0.02    0.04    0.05   55.33   92.04   49.06    5.07    2.27    1.92    3.49    3.35
 2020 228   123   255     1   302.5   301.4     1.0     0.0  103.20  359.63    0.00    0.00    0.00  103.20   77.18    0.00    0.00   56.85    91.4    49.0    5.06    2.26    1.92    3.47    3.33    0.07    0.05    0.05    0.04    0.02    0.02    0.04    0.05   56.91   91.44   49.00    5.10    2.28    1.94    3.51    3.38
 2020 229   124   255     1   303.1   302.0     1.0     0.0  103.81  360.25    0.00    0.00    0.00  103.81   77.18    0.00    0.00   58.42    90.8    48.9    5.08    2.27    1.93    3.49    3.35    0.07    0.05    0.04    0.04    0.02    0.02    0.04    0.05   58.49   90.84   48.94    5.12    2.29    1.96    3.53    3.40
 2020 230   125   255     1   303.7   302.7     1.0     0.0  104.43  360.86    0.00    0.00    0.00  104.43   77.18    0.00    0.00   36.95   101.7    48.8    5.10    2.29    1.95    3.52    3.38    0.08    0.05    0.04    0.04    0.02    0.02    0.04    0.05   37.03  101.76   48.88    5.14    2.31    1.97    3.56    3.43
 2020 231   126   255     1   304.0   302.8     1.2     0.0  105.16  361.46    0.00    0.00    0.00  105.16   77.63    0.00    0.00   37.90   101.1    48.8    5.13    2.30    1.97    3.54    3.40    0.21    0.09    0.04    0.04    0.02    0.02    0.04    0.05   38.11  101.17   48.81    5.16    2.32    1.99    3.58    3.45
 2020 232   127   255     1   303.5   302.3     1.1     0.0  105.88  362.20    0.00    0.00    0.00  105.88   78.84    0.00    0.00   67.76    91.8    44.4    4.91    2.24    2.13    3.53    3.40    0.20    0.09    0.04    0.04    0.02    0.02    0.04    0.05   67.96   91.91   44.43    4.94    2.25    2.16    3.57    3.44
 2020 233   128   255     1   302.2   301.0     1.1     0.0  106.58  362.92    0.00    0.00    0.00  106.58   80.84    0.00    0.00   68.34    90.2    44.3    4.93    2.25    2.14    3.55    3.42    0.18    0.09    0.04    0.04    0.02    0.02    0.04    0.05   68.53   90.33   44.33    4.96    2.26    2.17    3.59    3.47
 2020 234   129   255     1   300.2   299.2     1.1     0.0  107.24  363.62    0.00    0.00    0.00  107.24   83.42    0.00    0.00   68.51    88.4    44.2    4.95    2.26    2.15    3.58    3.45    0.14    0.08    0.04    0.04    0.02    0.02    0.04    0.05   68.65   88.50   44.23    4.99    2.27    2.18    3.61    3.49
 2020 235   130   255     1   298.6   297.5     1.0     0.0  107.88  364.29    0.00    0.00    0.00  107.88   85.73    0.00    0.00   69.84    86.2    44.1    4.97    2.27    2.16    3.60    3.47    0.11    0.07    0.04    0.04    0.02    0.02    0.04    0.05   69.95   86.30   44.12    5.01    2.28    2.18    3.64    3.52
 2020 236   131   255     1   297.9   296.8     1.0     0.0  108.51  364.94    0.00    0.00    0.00  108.51   87.07    0.00    0.00   71.32    84.7    44.0    5.00    2.28    2.17    3.62    3.50    0.09    0.07    0.04    0.04    0.02    0.02    0.04    0.05   71.42   84.72   44.05    5.03    2.29    2.19    3.66    3.54
 2020 237   132   255     1   298.5   297.5     1.0     0.0  109.14  365.58    0.00    0.00    0.00  109.14   87.07    0.00    0.00   45.38    97.8    44.0    5.02    2.29    2.18    3.65    3.52    0.08    0.06    0.04    0.04    0.02    0.02    0.04    0.05   45.46   97.89   43.99    5.06    2.31    2.21    3.68    3.57
 2020 238   133   255     1   299.2   298.1     1.1     0.0  109.88  366.20    0.00    0.00    0.00  109.88   87.07    0.00    0.00   46.25    97.6    43.9    5.04    2.30    2.20    3.67    3.55    0.21    0.10    0.04    0.04    0.02    0.02    0.04    0.05   46.46   97.67   43.94    5.08    2.32    2.22    3.71    3.59
 2020 239   134   255     1   299.1   298.0     1.1     0.0  110.62  366.98    0.00    0.00    0.00  110.62   87.93    0.00    0.00   74.91    88.6    40.0    4.83    2.27    2.35    3.66    3.54    0.19    0.09    0.03    0.04    0.02    0.02    0.04    0.05   75.10   88.71   40.00    4.87    2.29    2.37    3.70    3.59
 2020 240   135   255     1   297.5   296.4     1.1     0.0  111.34  367.74    0.00    0.00    0.00  111.34   90.28    0.00    0.00   75.08    86.9    39.9    4.86    2.28    2.36    3.68    3.57    0.17    0.08    0.03    0.03    0.02    0.02    0.04    0.05   75.24   87.00   39.96    4.89    2.30    2.38    3.72    3.62
 2020 241   136   255     1   295.9   294.9     1.0     0.0  112.05  368.49    0.00    0.00    0.00  112.05   92.53    0.00    0.00   23.79    83.2    60.9    4.88    2.29    2.37    3.71    3.60    0.12    0.07    0.03    0.03    0.02    0.02    0.04    0.05   23.91   83.28   60.97    4.92    2.31    2.39    3.74    3.64
 2020 242   137   255     1   295.1   293.8     1.3     0.0  112.97  369.15    0.00    0.00    0.00  112.97   94.26    0.00    0.00   22.75    79.0    63.5    4.91    2.31    2.39    3.73    3.62    0.17    0.21    0.07    0.03    0.02    0.02    0.03    0.05   22.93   79.24   63.60    4.94    2.32    2.41    3.77    3.67
 2020 243   138   255     1   296.0   294.5     1.5     0.0  113.87  369.84    0.00    0.00    0.00  113.87   94.27    0.00    0.00   28.64    77.2    63.0    4.85    2.31    2.44    3.74    3.64    0.28    0.30    0.08    0.04    0.02    0.02    0.04    0.05   28.92   77.47   63.10    4.88    2.33    2.46    3.78    3.68
 2020 244   139   255     1   294.1   292.8     1.3     0.0  114.76  370.87    0.00    0.00    0.00  114.76   97.06    0.00    0.00   27.85    61.7    74.0    4.70    2.31    2.53    3.74    3.64    0.21    0.22    0.09    0.04    0.02    0.02    0.04    0.05   28.06   61.95   74.11    4.74    2.33    2.55    3.77    3.68
 2020 245   140   255     1   292.3   290.7     1.6     0.0  115.67  371.54    0.00    0.00    0.00  115.67   99.74    0.00    0.00   33.95    59.1    72.4    4.65    2.32    2.56    3.75    3.65    0.29    0.30    0.13    0.04    0.02    0.02    0.04    0.05   34.24   59.42   72.50    4.68    2.33    2.58    3.78    3.70
 2020 246   141   255     1   292.6   291.1     1.5     0.0  116.53  372.45    0.00    0.00    0.00  116.53  100.32    0.00    0.00   40.09    59.3    70.1    4.57    2.33    2.61    3.75    3.66    0.25    0.25    0.15    0.04    0.02    0.02    0.04    0.05   40.34   59.54   70.23    4.61    2.35    2.63    3.79    3.71
 2020 247   142   255     1   290.2   288.7     1.5     0.0  117.36  373.28    0.00    0.00    0.00  117.36  103.56    0.00    0.00   40.42    58.0    69.2    4.59    2.34    2.61    3.77    3.68    0.23    0.23    0.16    0.04    0.02    0.02    0.04    0.05   40.65   58.21   69.41    4.63    2.36    2.64    3.81    3.73
 2020 248   143   255     1   288.5   287.0     1.5     0.0  118.19  374.13    0.00    0.00    0.00  118.19  106.07    0.00    0.00   40.89    56.9    68.6    4.61    2.35    2.62    3.79    3.71    0.22    0.23    0.16    0.04    0.02    0.02    0.04    0.05   41.10   57.15   68.76    4.65    2.37    2.65    3.83    3.76
 2020 249   144   255     1   286.9   285.4     1.5     0.0  119.00  374.95    0.00    0.00    0.00  119.00  108.45    0.00    0.00   41.34    55.9    68.0    4.63    2.36    2.63    3.81    3.73    0.20    0.22    0.16    0.04    0.02    0.02    0.04    0.05   41.54   56.15   68.15    4.67    2.37    2.66    3.85    3.78
 2020 250   145   255     1   285.7   284.2     1.5     0.0  119.84  375.84    0.00    0.00    0.00  119.84  110.55    0.00    0.00   41.85    55.0    67.4    4.65    2.37    2.64    3.83    3.76    0.17    0.22    0.15    0.04    0.02    0.02    0.04    0.05   42.02   55.27   67.60    4.69    2.39    2.67    3.87    3.80
 2020 251   146   255     1   284.7   283.4     1.4     0.0  120.71  376.79    0.00    0.00    0.00  120.71  112.36    0.00    0.00   25.19    59.5    69.5    4.68    2.38    2.66    3.85    3.78    0.13    0.20    0.14    0.04    0.02    0.02    0.04    0.05   25.32   59.74   69.68    4.72    2.40    2.68    3.89    3.83
 2020 252   147   255     1   283.7   282.2     1.5     0.0  121.64  377.56    0.00    0.00    0.00  121.64  114.32    0.00    0.00   19.28    55.6    73.8    4.70    2.39    2.67    3.88    3.81    0.24    0.29    0.13    0.04    0.02    0.02    0.04    0.05   19.53   55.84   73.91    4.74    2.41    2.69    3.91    3.86
 2020 253   148   255     1   284.6   282.9     1.7     0.0  122.52  378.25    0.00    0.00    0.00  122.52  114.32    0.00    0.00   14.27    42.3    74.5   16.14    2.40    2.69    3.89    3.83    0.33    0.37    0.15    0.04    0.02    0.02    0.04    0.05   14.60   42.65   74.66   16.18    2.42    2.71    3.92    3.88
 2020 254   149   255     1   285.4   283.3     2.0     0.0  123.28  378.73    0.00    0.00    0.00  123.28  114.32    0.00    0.00   14.31    40.6    72.2   19.81    2.41    2.70    3.90    3.85    0.39    0.43    0.22    0.06    0.02    0.02    0.04    0.05   14.70   40.98   72.45   19.87    2.42    2.72    3.94    3.90
 2020 255   150   255     1   286.0   283.8     2.2     0.0  123.93  379.19    0.00    0.00    0.00  123.93  114.32    0.00    0.00   16.04    39.9    70.1   21.93    2.41    2.71    3.91    3.86    0.43    0.46    0.27    0.08    0.02    0.02    0.04    0.05   16.46   40.35   70.36   22.01    2.43    2.74    3.95    3.91
 2020 256   151   255     1   284.8   282.7     2.1     0.0  124.49  379.84    0.00    0.00    0.00  124.49  116.05    0.00    0.00   20.86    40.6    68.0   21.05    2.42    2.76    3.90    3.86    0.38    0.40    0.25    0.09    0.02    0.02    0.04    0.05   21.24   41.00   68.22   21.14    2.44    2.78    3.94    3.91
 2020 257   152   255     1   283.5   281.5     2.0     0.0  125.01  380.42    0.00    0.00    0.00  125.01  117.89    0.00    0.00   21.38    40.0    67.4   20.94    2.43    2.77    3.92    3.88    0.35    0.36    0.23    0.10    0.02    0.02    0.04    0.05   21.73   40.37   67.65   21.04    2.45    2.79    3.96    3.93
 2020 258   153   255     1   282.3   280.4     2.0     0.0  125.63  381.10    0.00    0.00    0.00  125.63  119.68    0.00    0.00   21.90    39.5    66.9   20.84    2.43    2.77    3.93    3.90    0.32    0.33    0.22    0.11    0.02    0.02    0.04    0.05   22.22   39.79   67.11   20.94    2.45    2.80    3.97    3.95
 2020 259   154   255     1   281.8   279.9     1.9     0.0  126.37  381.93    0.00    0.00    0.00  126.37  120.99    0.00    0.00   12.98    37.3    68.3   23.99    2.44    2.78    3.95    3.92    0.27    0.30    0.21    0.11    0.02    0.02    0.04    0.05   13.25   37.56   68.48   24.10    2.46    2.80    3.99    3.97
 2020 260   155   255     1   281.0   278.9     2.1     0.0  127.22  382.57    0.00    0.00    0.00  127.22  122.61    0.00    0.00   17.90    36.9    64.4   25.63    2.46    2.85    3.94    3.92    0.35    0.37    0.27    0.12    0.02    0.02    0.04    0.05   18.25   37.28   64.67   25.75    2.48    2.87    3.98    3.97
 2020 261   156   255     1   280.4   278.5     1.9     0.0  128.14  383.70    0.00    0.00    0.00  128.14  124.08    0.00    0.00   21.97    37.0    63.0   25.06    2.48    2.87    3.95    3.94    0.28    0.29    0.22    0.13    0.02    0.02    0.04    0.05   22.25   37.34   63.18   25.19    2.49    2.89    3.99    3.99
 2020 262   157   255     1   279.9   278.1     1.8     0.0  129.03  384.69    0.00    0.00    0.00  129.03  125.53    0.00    0.00   22.52    36.7    62.6   25.00    2.49    2.88    3.97    3.96    0.25    0.26    0.20    0.13    0.02    0.02    0.04    0.05   22.77   36.92   62.79   25.13    2.50    2.90    4.01    4.01
 2020 263   158   255     1   279.5   277.8     1.8     0.0  129.92  385.62    0.00    0.00    0.00  129.92  126.79    0.00    0.00   23.08    36.3    62.3   24.95    2.49    2.89    3.99    3.98    0.23    0.24    0.19    0.14    0.02    0.02    0.04    0.05   23.31   36.56   62.45   25.08    2.51    2.91    4.02    4.03
 2020 264   159   255     1   279.0   277.3     1.7     0.0  130.79  386.53    0.00    0.00    0.00  130.79  128.18    0.00    0.00   23.59    35.9    61.9   24.89    2.50    2.90    4.01    4.01    0.21    0.24    0.18    0.14    0.02    0.02    0.04    0.05   23.80   36.17   62.08   25.03    2.52    2.92    4.04    4.06
 2020 265   160   255     1   278.4   276.7     1.7     0.0  131.68  387.44    0.00    0.00    0.00  131.68  129.62    0.00    0.00   14.08    36.6    64.5   24.83    2.51    2.91    4.03    4.03    0.18    0.23    0.18    0.14    0.02    0.02    0.04    0.05   14.26   36.82   64.68   24.96    2.53    2.93    4.06    4.08
 2020 266   161   255     1   277.9   276.1     1.8     0.0  132.59  388.21    0.00    0.00    0.00  132.59  131.06    0.00    0.00   14.55    35.2    64.3   25.30    2.52    2.92    4.05    4.06    0.26    0.31    0.18    0.14    0.02    0.02    0.04    0.05   14.81   35.49   64.45   25.43    2.54    2.94    4.08    4.10
 2020 267   162   255     1   277.3   275.6     1.7     0.0  133.52  389.23    0.00    0.00    0.00  133.52  132.60    0.00    0.00   20.51    36.5    61.9   24.08    2.55    2.99    4.04    4.05    0.24    0.26    0.18    0.14    0.02    0.02    0.04    0.05   20.75   36.79   62.06   24.22    2.57    3.01    4.07    4.10
 2020 268   163   255     1   277.0   275.3     1.7     0.0  134.47  390.22    0.00    0.00    0.00  134.47  133.87    0.00    0.00   21.08    36.2    61.6   24.04    2.56    3.00    4.06    4.08    0.23    0.24    0.17    0.14    0.02    0.02    0.03    0.05   21.31   36.43   61.73   24.18    2.58    3.02    4.09    4.13
 2020 269   164   255     1   276.5   274.8     1.6     0.0  135.44  391.25    0.00    0.00    0.00  135.44  135.36    0.00    0.00   21.61    35.8    61.2   23.99    2.57    3.01    4.08    4.10    0.21    0.22    0.17    0.13    0.02    0.02    0.03    0.05   21.83   36.02   61.34   24.12    2.59    3.03    4.11    4.15
 2020 270   165   255     1   276.0   274.4     1.6     0.0  136.44  392.31    0.00    0.00    0.00  136.44  136.80    0.00    0.00   22.14    35.4    60.8   23.94    2.59    3.02    4.10    4.13    0.18    0.21    0.17    0.13    0.02    0.02    0.03    0.05   22.33   35.64   60.97   24.07    2.60    3.04    4.13    4.18
 2020 271   166   255     1   275.9   274.4     1.5     0.0  137.46  393.37    0.00    0.00    0.00  137.46  137.92    0.00    0.00   22.70    35.1    60.5   23.93    2.60    3.03    4.12    4.16    0.16    0.21    0.16    0.12    0.02    0.02    0.03    0.05   22.85   35.34   60.69   24.05    2.61    3.05    4.15    4.20
 2020 272   167   255     1   276.9   275.3     1.5     0.0  138.43  394.34    0.00    0.00    0.00  138.43  137.92    0.00    0.00   23.41    35.1    60.5   23.99    2.61    3.04    4.14    4.18    0.14    0.21    0.16    0.13    0.02    0.02    0.03    0.05   23.55   35.34   60.70   24.12    2.63    3.06    4.17    4.23
 2020 273   168   255     1   277.8   276.2     1.6     0.0  139.34  395.23    0.00    0.00    0.00  139.34  137.92    0.00    0.00   24.10    35.1    60.5   24.05    2.62    3.05    4.16    4.21    0.13    0.21    0.17    0.13    0.02    0.02    0.03    0.05   24.23   35.32   60.70   24.18    2.64    3.07    4.19    4.25
 2020 274   169   255     1   278.6   277.1     1.6     0.0  140.21  396.07    0.00    0.00    0.00  140.21  137.92    0.00    0.00   24.78    35.1    60.5   24.10    2.63    3.06    4.18    4.23    0.12    0.22    0.17    0.13    0.02    0.02    0.03    0.05   24.90   35.29   60.70   24.23    2.64    3.08    4.21    4.28
 2020 275   170   255     1   279.4   277.8     1.6     0.0  141.00  396.84    0.00    0.00    0.00  141.00  137.92    0.00    0.00   25.45    35.0    60.5   24.15    2.64    3.07    4.19    4.25    0.11    0.22    0.17    0.14    0.02    0.02    0.04    0.05   25.56   35.25   60.68   24.28    2.65    3.09    4.23    4.30
 2020 276   171   255     1   280.1   278.5     1.6     0.0  141.71  397.52    0.00    0.00    0.00  141.71  137.92    0.00    0.00   26.10    35.0    60.5   24.19    2.64    3.08    4.21    4.28    0.11    0.22    0.17    0.14    0.02    0.02    0.04    0.05   26.20   35.20   60.66   24.33    2.66    3.10    4.24    4.32
 2020 277   172   255     1   280.8   279.2     1.6     0.0  142.41  398.23    0.00    0.00    0.00  142.41  137.92    0.00    0.00   26.74    34.9    60.5   24.23    2.65    3.09    4.22    4.30    0.10    0.22    0.17    0.14    0.02    0.02    0.04    0.05   26.84   35.14   60.63   24.37    2.67    3.11    4.26    4.35
