
*SOIL N BALANCE - CENTURY ROUTINES

*DSSAT Cropping System Model Ver. 4.7.5.035 -develop  JUN 14, 2021 09:08:55

!                              |--------------- Initial N State Variables ----------------|----------------- Final N State Variables -----------------|------------- N Additions -------------|---------------- N Subtractions -----------------|--Mineralization---|----- Seasonal Balance -----|
!                              |----------------- Organic ----------------------|         |------------------ Organic ----------------------|         |  Harvest   Applied                    |              Tile-     Plant     N gas     Flood|   Miner-    Immob-|                            |
!                              | Surface      SOM1      SOM2      SOM3    Litter     Inorg|  Surface      SOM1      SOM2      SOM3    Litter     Inorg|  Residue   Residue  Fertiliz   Senesed|  Leached   drained    Uptake    Losses    Losses|   alized    ilized|Inorganic   Organic   Overall
@Run FILEX               TN CR     SN0Di    S1NTDi    S2NTDi    S3NTDi     LNTDi     NIADi      SN0D     S1NTD     S2NTD     S3NTD      LNTD      NIAD      HRNH     RESNC      NICM     SNNTC      NLCM      TDFC      NUCM     NGasC      RNRO      NMNC      NIMC    InNBal   OrgNBal     SNBAL
   1 KSRT2001.SBX         1 MZ      0.00      0.00  18282.50      0.00      0.00     22.06      0.00      0.00  18149.83      0.00      5.23     58.65      0.00      0.00      0.00      6.17      0.00      0.00     96.81      0.21      0.00    133.61      0.00      0.00      0.00      0.00
   2 KSRT2001.SBX         2 MZ      0.00      0.00  18282.50      0.00      0.00     22.06      0.00      0.00  18141.21      0.00      3.87     59.44      0.00      0.00      0.00      4.14      0.00      0.00    103.80      0.38      0.00    141.56      0.00     -0.00      0.00      0.00
   3 KSRT2001.SBX         3 MZ      0.00      0.00  18282.50      0.00      0.00     22.06      0.00      0.00  18147.00      0.00      4.00     54.18      0.00      0.00      0.00      5.47      0.00      0.00    104.63      0.22      0.00    136.97      0.00      0.00      0.00      0.00
