
*SOIL N BALANCE - CENTURY ROUTINES

*DSSAT Cropping System Model Ver. 4.7.5.035 -develop  JUN 14, 2021 14:17:00

!                              |--------------- Initial N State Variables ----------------|----------------- Final N State Variables -----------------|------------- N Additions -------------|---------------- N Subtractions -----------------|--Mineralization---|----- Seasonal Balance -----|
!                              |----------------- Organic ----------------------|         |------------------ Organic ----------------------|         |  Harvest   Applied                    |              Tile-     Plant     N gas     Flood|   Miner-    Immob-|                            |
!                              | Surface      SOM1      SOM2      SOM3    Litter     Inorg|  Surface      SOM1      SOM2      SOM3    Litter     Inorg|  Residue   Residue  Fertiliz   Senesed|  Leached   drained    Uptake    Losses    Losses|   alized    ilized|Inorganic   Organic   Overall
@Run FILEX               TN CR     SN0Di    S1NTDi    S2NTDi    S3NTDi     LNTDi     NIADi      SN0D     S1NTD     S2NTD     S3NTD      LNTD      NIAD      HRNH     RESNC      NICM     SNNTC      NLCM      TDFC      NUCM     NGasC      RNRO      NMNC      NIMC    InNBal   OrgNBal     SNBAL
   1 KSRT2001.SBX         1 MZ      0.00      0.00  18282.50      0.00      0.00     22.06      0.00      0.00  18143.05      0.00      3.29    230.69      0.00      0.00    255.00      5.08      0.00      0.00    187.00      0.60      0.00    141.23      0.00     -0.00      0.00     -0.00
   2 KSRT2001.SBX         2 MZ      0.00      0.00  18282.50      0.00      0.00     22.06      0.00      0.00  18135.48      0.00      2.58    159.43      0.00      0.00    255.00      4.15      0.00      0.00    262.88      3.34      0.00    148.59      0.00     -0.00      0.00      0.00
   3 KSRT2001.SBX         3 MZ      0.00      0.00  18282.50      0.00      0.00     22.06      0.00      0.00  18141.61      0.00      2.24    280.94      0.00      0.00    255.00      3.77      0.00      0.00    137.92      0.61      0.00    142.41      0.00      0.00     -0.00     -0.00
