*Soil Organic Matter daily output file

*DSSAT Cropping System Model Ver. 4.7.5.035 -develop  JUN 14, 2021 14:17:00

*RUN   1        : 20 IRRIG, PETPEN NO KCB.. MZCER047 KSRT2001    1
 MODEL          : MZCER047 - Maize
 EXPERIMENT     : KSRT2001 SB ARM 2020 KS, IRRIGATED
 DATA PATH      :
 TREATMENT  1   : 20 IRRIG, PETPEN NO KCB.. MZCER047
  
@YEAR DOY   DAS    OMAC    SCDD    SOCD    SC0D    SCTD   SOMCT    LCTD    ONAC    SNDD    SOND    SN0D    SNTD   SOMNT    LNTD
 2020 105     0       0   22422  182825       0  182825  182825     0.0    0.00  2242.2 18282.5    0.00 18282.5 18282.5    0.00
 2020 106     1       0   22421  182819       0  182819  182819     0.0    0.00  2242.1 18281.9    0.00 18281.9 18281.9    0.00
 2020 107     2       0   22421  182814       0  182814  182814     0.0    0.00  2242.1 18281.4    0.00 18281.4 18281.4    0.00
 2020 108     3       0   22420  182808       0  182808  182808     0.0    0.00  2242.0 18280.8    0.00 18280.8 18280.8    0.00
 2020 109     4       0   22419  182803       0  182803  182803     0.0    0.00  2241.9 18280.3    0.00 18280.3 18280.3    0.00
 2020 110     5       0   22419  182798       0  182798  182798     0.0    0.00  2241.9 18279.8    0.00 18279.8 18279.8    0.00
 2020 111     6       0   22418  182792       0  182792  182792     0.0    0.00  2241.8 18279.2    0.00 18279.2 18279.2    0.00
 2020 112     7       0   22417  182786       0  182786  182786     0.0    0.00  2241.7 18278.6    0.00 18278.6 18278.6    0.00
 2020 113     8       0   22416  182779       0  182779  182779     0.0    0.00  2241.6 18277.9    0.00 18277.9 18277.9    0.00
 2020 114     9       0   22415  182772       0  182772  182772     0.0    0.00  2241.5 18277.2    0.00 18277.2 18277.2    0.00
 2020 115    10       0   22414  182765       0  182765  182765     0.0    0.00  2241.4 18276.5    0.00 18276.5 18276.5    0.00
 2020 116    11       0   22414  182758       0  182758  182758     0.0    0.00  2241.4 18275.8    0.00 18275.8 18275.8    0.00
 2020 117    12       0   22413  182751       0  182751  182751     0.0    0.00  2241.3 18275.1    0.00 18275.1 18275.1    0.00
 2020 118    13       0   22412  182744       0  182744  182744     0.0    0.00  2241.2 18274.4    0.00 18274.4 18274.4    0.00
 2020 119    14       0   22411  182736       0  182736  182736     0.0    0.00  2241.1 18273.6    0.00 18273.6 18273.6    0.00
 2020 120    15       0   22410  182728       0  182728  182728     0.0    0.00  2241.0 18272.8    0.00 18272.8 18272.8    0.00
 2020 121    16       0   22408  182719       0  182719  182719     0.0    0.00  2240.8 18271.9    0.00 18271.9 18271.9    0.00
 2020 122    17       0   22407  182709       0  182709  182709     0.0    0.00  2240.7 18270.9    0.00 18270.9 18270.9    0.00
 2020 123    18       0   22406  182699       0  182699  182699     0.0    0.00  2240.6 18269.9    0.00 18269.9 18269.9    0.00
 2020 124    19       0   22404  182689       0  182689  182689     0.0    0.00  2240.4 18268.9    0.00 18268.9 18268.9    0.00
 2020 125    20       0   22403  182680       0  182680  182680     0.0    0.00  2240.3 18268.0    0.00 18268.0 18268.0    0.00
 2020 126    21       0   22402  182670       0  182670  182670     0.0    0.00  2240.2 18267.0    0.00 18267.0 18267.0    0.00
 2020 127    22       0   22400  182660       0  182660  182660     0.0    0.00  2240.0 18266.0    0.00 18266.0 18266.0    0.00
 2020 128    23       0   22399  182651       0  182651  182651     0.0    0.00  2239.9 18265.1    0.00 18265.1 18265.1    0.00
 2020 129    24       0   22398  182642       0  182642  182642     0.0    0.00  2239.8 18264.2    0.00 18264.2 18264.2    0.00
 2020 130    25       0   22397  182634       0  182634  182634     0.0    0.00  2239.7 18263.4    0.00 18263.4 18263.4    0.00
 2020 131    26       0   22396  182626       0  182626  182626     0.0    0.00  2239.6 18262.6    0.00 18262.6 18262.6    0.00
 2020 132    27       0   22395  182619       0  182619  182619     0.0    0.00  2239.5 18261.9    0.00 18261.9 18261.9    0.00
 2020 133    28       0   22394  182613       0  182613  182613     0.0    0.00  2239.4 18261.3    0.00 18261.3 18261.3    0.00
 2020 134    29       0   22393  182608       0  182608  182608     0.0    0.00  2239.3 18260.8    0.00 18260.8 18260.8    0.00
 2020 135    30       0   22393  182603       0  182603  182603     0.0    0.00  2239.3 18260.3    0.00 18260.3 18260.3    0.00
 2020 136    31       0   22392  182598       0  182598  182598     0.0    0.00  2239.2 18259.8    0.00 18259.8 18259.8    0.00
 2020 137    32       0   22392  182592       0  182592  182592     0.0    0.00  2239.2 18259.2    0.00 18259.2 18259.2    0.00
 2020 138    33       0   22391  182585       0  182585  182585     0.0    0.00  2239.1 18258.5    0.00 18258.5 18258.5    0.00
 2020 139    34       0   22390  182577       0  182577  182577     0.0    0.00  2239.0 18257.7    0.00 18257.7 18257.7    0.00
 2020 140    35       0   22388  182568       0  182568  182568     0.0    0.00  2238.8 18256.8    0.00 18256.8 18256.8    0.00
 2020 141    36       0   22387  182558       0  182558  182558     0.0    0.00  2238.7 18255.8    0.00 18255.8 18255.8    0.00
 2020 142    37       0   22386  182549       0  182549  182549     0.0    0.00  2238.6 18254.9    0.00 18254.9 18254.9    0.00
 2020 143    38       0   22385  182540       0  182540  182540     0.0    0.00  2238.5 18254.0    0.00 18254.0 18254.0    0.00
 2020 144    39       0   22383  182531       0  182531  182531     0.0    0.00  2238.3 18253.1    0.00 18253.1 18253.1    0.00
 2020 145    40       0   22382  182521       0  182521  182521     0.0    0.00  2238.2 18252.1    0.00 18252.1 18252.1    0.00
 2020 146    41       0   22381  182512       0  182512  182512     0.0    0.00  2238.1 18251.1    0.00 18251.1 18251.1    0.00
 2020 147    42       0   22380  182502       0  182502  182502     0.0    0.00  2238.0 18250.2    0.00 18250.2 18250.2    0.00
 2020 148    43       0   22378  182494       0  182494  182494     0.0    0.00  2237.8 18249.4    0.00 18249.4 18249.4    0.00
 2020 149    44       0   22377  182485       0  182485  182485     0.0    0.00  2237.7 18248.5    0.00 18248.5 18248.5    0.00
 2020 150    45       0   22376  182476       0  182476  182476     0.0    0.00  2237.6 18247.6    0.00 18247.6 18247.6    0.00
 2020 151    46       0   22375  182468       0  182468  182468     0.0    0.00  2237.5 18246.8    0.00 18246.8 18246.8    0.00
 2020 152    47       0   22374  182458       0  182458  182458     0.0    0.00  2237.4 18245.8    0.00 18245.8 18245.8    0.00
 2020 153    48       0   22372  182447       0  182447  182447     0.0    0.00  2237.2 18244.7    0.00 18244.7 18244.7    0.00
 2020 154    49       0   22370  182435       0  182435  182435     0.0    0.00  2237.0 18243.5    0.00 18243.5 18243.5    0.00
 2020 155    50       0   22369  182423       0  182423  182423     0.0    0.00  2236.9 18242.3    0.00 18242.3 18242.3    0.00
 2020 156    51       0   22367  182410       0  182410  182410     0.0    0.00  2236.7 18241.0    0.00 18241.0 18241.0    0.00
 2020 157    52       0   22365  182397       0  182397  182397     0.0    0.00  2236.5 18239.7    0.00 18239.7 18239.7    0.00
 2020 158    53       0   22363  182384       0  182384  182384     0.0    0.00  2236.3 18238.4    0.00 18238.4 18238.4    0.00
 2020 159    54       0   22361  182371       0  182371  182371     0.0    0.00  2236.1 18237.1    0.00 18237.1 18237.1    0.00
 2020 160    55       0   22360  182358       0  182358  182358     0.0    0.00  2236.0 18235.8    0.00 18235.8 18235.8    0.00
 2020 161    56       0   22358  182344       0  182344  182344     0.0    0.00  2235.8 18234.4    0.00 18234.4 18234.4    0.00
 2020 162    57       0   22356  182332       0  182332  182332     0.0    0.00  2235.6 18233.2    0.00 18233.2 18233.2    0.00
 2020 163    58       0   22354  182320       0  182320  182320     0.0    0.00  2235.4 18232.0    0.00 18232.0 18232.0    0.00
 2020 164    59       0   22353  182309       0  182309  182309     0.1    0.00  2235.3 18230.9    0.00 18230.9 18230.9    0.00
 2020 165    60       0   22351  182298       0  182298  182298     0.2    0.00  2235.1 18229.8    0.00 18229.8 18229.7    0.01
 2020 166    61       0   22350  182287       0  182287  182286     0.3    0.00  2235.0 18228.6    0.00 18228.6 18228.6    0.01
 2020 167    62       0   22348  182275       0  182275  182274     0.4    0.00  2234.8 18227.4    0.00 18227.4 18227.4    0.01
 2020 168    63       0   22346  182262       0  182262  182261     0.6    0.00  2234.6 18226.2    0.00 18226.2 18226.1    0.02
 2020 169    64       0   22345  182250       0  182250  182250     0.8    0.00  2234.5 18225.0    0.00 18225.0 18225.0    0.02
 2020 170    65       0   22343  182239       0  182239  182238     1.0    0.00  2234.3 18223.8    0.00 18223.8 18223.8    0.03
 2020 171    66       0   22341  182228       0  182228  182227     1.3    0.00  2234.1 18222.7    0.00 18222.7 18222.7    0.04
 2020 172    67       0   22339  182218       0  182218  182216     1.7    0.00  2233.9 18221.7    0.00 18221.7 18221.6    0.06
 2020 173    68       0   22338  182208       0  182208  182206     2.2    0.00  2233.8 18220.7    0.00 18220.7 18220.6    0.07
 2020 174    69       0   22336  182199       0  182199  182196     2.7    0.00  2233.6 18219.7    0.00 18219.7 18219.6    0.09
 2020 175    70       0   22335  182190       0  182190  182186     3.3    0.00  2233.5 18218.7    0.00 18218.7 18218.6    0.10
 2020 176    71       0   22334  182181       0  182181  182177     4.0    0.00  2233.4 18217.8    0.00 18217.8 18217.7    0.13
 2020 177    72       0   22332  182171       0  182171  182166     4.9    0.00  2233.2 18216.8    0.00 18216.8 18216.6    0.15
 2020 178    73       0   22330  182162       0  182162  182156     5.8    0.00  2233.0 18215.8    0.00 18215.8 18215.6    0.18
 2020 179    74       0   22329  182153       0  182153  182146     6.9    0.00  2232.9 18214.8    0.00 18214.8 18214.6    0.21
 2020 180    75       0   22328  182144       0  182144  182136     8.0    0.00  2232.8 18213.8    0.00 18213.8 18213.6    0.25
 2020 181    76       0   22327  182135       0  182135  182126     9.3    0.00  2232.6 18212.9    0.00 18212.9 18212.6    0.29
 2020 182    77       0   22325  182126       0  182126  182116    10.6    0.00  2232.5 18211.9    0.00 18211.9 18211.6    0.34
 2020 183    78       0   22324  182118       0  182118  182106    12.1    0.00  2232.4 18211.0    0.00 18211.0 18210.6    0.39
 2020 184    79       0   22323  182111       0  182111  182097    13.8    0.00  2232.3 18210.1    0.00 18210.1 18209.6    0.44
 2020 185    80       0   22322  182104       0  182104  182088    15.8    0.00  2232.2 18209.3    0.00 18209.3 18208.8    0.50
 2020 186    81       0   22321  182098       0  182098  182080    18.0    0.00  2232.1 18208.5    0.00 18208.5 18208.0    0.57
 2020 187    82       0   22321  182093       0  182093  182072    20.5    0.00  2232.1 18207.9    0.00 18207.9 18207.2    0.64
 2020 188    83       0   22320  182088       0  182088  182065    23.0    0.00  2232.0 18207.2    0.00 18207.2 18206.5    0.72
 2020 189    84       0   22320  182084       0  182084  182059    25.7    0.00  2232.0 18206.6    0.00 18206.6 18205.8    0.80
 2020 190    85       0   22319  182080       0  182080  182052    28.4    0.00  2231.9 18206.1    0.00 18206.1 18205.2    0.89
 2020 191    86       0   22319  182077       0  182077  182045    31.2    0.00  2231.9 18205.5    0.00 18205.5 18204.5    0.98
 2020 192    87       0   22318  182070       0  182070  182039    31.2    0.00  2231.8 18204.8    0.00 18204.8 18203.9    0.98
 2020 193    88       0   22318  182064       0  182064  182033    31.1    0.00  2231.8 18204.2    0.00 18204.2 18203.2    0.97
 2020 194    89       0   22317  182060       0  182060  182026    34.0    0.00  2231.7 18203.6    0.00 18203.6 18202.6    1.06
 2020 195    90       0   22317  182054       0  182054  182020    34.0    0.00  2231.7 18203.0    0.00 18203.0 18201.9    1.06
 2020 196    91       0   22317  182047       0  182047  182013    34.0    0.00  2231.6 18202.4    0.00 18202.4 18201.3    1.06
 2020 197    92       0   22316  182041       0  182041  182007    33.9    0.00  2231.6 18201.7    0.00 18201.7 18200.7    1.06
 2020 198    93       0   22316  182035       0  182035  182001    33.9    0.00  2231.6 18201.1    0.00 18201.1 18200.1    1.06
 2020 199    94       0   22315  182029       0  182029  181995    33.9    0.00  2231.5 18200.6    0.00 18200.6 18199.5    1.06
 2020 200    95       0   22315  182023       0  182023  181989    33.8    0.00  2231.5 18199.9    0.00 18199.9 18198.9    1.06
 2020 201    96       0   22314  182016       0  182016  181982    33.5    0.00  2231.4 18199.3    0.00 18199.3 18198.2    1.06
 2020 202    97       0   22314  182009       0  182009  181976    33.4    0.00  2231.4 18198.6    0.00 18198.6 18197.6    1.05
 2020 203    98       0   22313  182006       0  182006  181970    36.2    0.00  2231.3 18198.1    0.00 18198.1 18196.9    1.13
 2020 204    99       0   22313  182003       0  182003  181964    39.1    0.00  2231.3 18197.5    0.00 18197.5 18196.3    1.21
 2020 205   100       0   22312  182000       0  182000  181958    42.0    0.00  2231.2 18197.0    0.00 18197.0 18195.7    1.29
 2020 206   101       0   22312  181997       0  181997  181952    44.9    0.00  2231.2 18196.5    0.00 18196.5 18195.1    1.37
 2020 207   102       0   22312  181994       0  181994  181946    47.7    0.00  2231.1 18196.0    0.00 18196.0 18194.5    1.45
 2020 208   103       0   22311  181990       0  181990  181940    50.6    0.00  2231.1 18195.5    0.00 18195.5 18193.9    1.53
 2020 209   104       0   22310  181983       0  181983  181931    52.2    0.00  2230.9 18194.7    0.00 18194.7 18193.1    1.59
 2020 210   105       0   22308  181974       0  181974  181923    50.7    0.00  2230.8 18193.8    0.00 18193.8 18192.2    1.57
 2020 211   106       0   22307  181964       0  181964  181915    49.4    0.00  2230.6 18192.9    0.00 18192.9 18191.4    1.56
 2020 212   107       0   22305  181958       0  181958  181907    51.1    0.00  2230.5 18192.2    0.00 18192.2 18190.6    1.61
 2020 213   108       0   22304  181950       0  181950  181900    50.1    0.00  2230.3 18191.4    0.00 18191.4 18189.8    1.60
 2020 214   109       0   22303  181945       0  181945  181892    52.1    0.00  2230.2 18190.8    0.00 18190.8 18189.1    1.66
 2020 215   110       0   22301  181937       0  181937  181885    51.4    0.00  2230.1 18190.0    0.00 18190.0 18188.4    1.65
 2020 216   111       0   22300  181929       0  181929  181878    50.7    0.00  2230.0 18189.3    0.00 18189.3 18187.7    1.63
 2020 217   112       0   22299  181922       0  181922  181872    50.0    0.00  2229.9 18188.6    0.00 18188.6 18187.0    1.62
 2020 218   113       0   22298  181914       0  181914  181865    49.4    0.00  2229.8 18187.9    0.00 18187.9 18186.3    1.61
 2020 219   114       0   22298  181907       0  181907  181858    49.0    0.00  2229.7 18187.2    0.00 18187.2 18185.6    1.60
 2020 220   115       0   22296  181900       0  181900  181852    48.4    0.00  2229.6 18186.6    0.00 18186.6 18185.0    1.59
 2020 221   116       0   22295  181893       0  181893  181845    47.8    0.00  2229.5 18185.9    0.00 18185.9 18184.3    1.58
 2020 222   117       0   22295  181885       0  181885  181838    47.4    0.00  2229.4 18185.2    0.00 18185.2 18183.6    1.57
 2020 223   118       0   22294  181878       0  181878  181831    47.0    0.00  2229.3 18184.5    0.00 18184.5 18182.9    1.56
 2020 224   119       0   22293  181874       0  181874  181824    49.8    0.00  2229.2 18183.9    0.00 18183.9 18182.2    1.63
 2020 225   120       0   22293  181870       0  181870  181818    52.6    0.00  2229.2 18183.3    0.00 18183.3 18181.6    1.71
 2020 226   121       0   22292  181867       0  181867  181811    55.4    0.00  2229.1 18182.7    0.00 18182.7 18180.9    1.79
 2020 227   122       0   22292  181863       0  181863  181805    58.2    0.00  2229.1 18182.2    0.00 18182.2 18180.3    1.86
 2020 228   123       0   22291  181860       0  181860  181799    61.0    0.00  2229.0 18181.6    0.00 18181.6 18179.7    1.94
 2020 229   124       0   22291  181857       0  181857  181793    63.8    0.00  2229.0 18181.1    0.00 18181.1 18179.1    2.02
 2020 230   125       0   22290  181854       0  181854  181787    66.6    0.00  2228.9 18180.6    0.00 18180.6 18178.5    2.09
 2020 231   126       0   22289  181849       0  181849  181780    68.9    0.00  2228.8 18180.0    0.00 18180.0 18177.8    2.16
 2020 232   127       0   22289  181845       0  181845  181774    71.3    0.00  2228.8 18179.3    0.00 18179.3 18177.1    2.23
 2020 233   128       0   22288  181841       0  181841  181767    73.8    0.00  2228.7 18178.7    0.00 18178.7 18176.4    2.30
 2020 234   129       0   22287  181837       0  181837  181761    76.4    0.00  2228.6 18178.2    0.00 18178.2 18175.8    2.37
 2020 235   130       0   22287  181834       0  181834  181754    79.1    0.00  2228.6 18177.6    0.00 18177.6 18175.2    2.44
 2020 236   131       0   22286  181830       0  181830  181748    81.8    0.00  2228.5 18177.1    0.00 18177.1 18174.6    2.52
 2020 237   132       0   22285  181827       0  181827  181742    84.5    0.00  2228.4 18176.6    0.00 18176.6 18174.0    2.59
 2020 238   133       0   22285  181822       0  181822  181736    86.7    0.00  2228.4 18175.9    0.00 18175.9 18173.3    2.65
 2020 239   134       0   22284  181818       0  181818  181729    88.9    0.00  2228.3 18175.3    0.00 18175.3 18172.6    2.72
 2020 240   135       0   22283  181813       0  181813  181722    91.3    0.00  2228.2 18174.7    0.00 18174.7 18171.9    2.78
 2020 241   136       0   22282  181809       0  181809  181715    93.8    0.00  2228.1 18174.1    0.00 18174.1 18171.2    2.85
 2020 242   137       0   22281  181802       0  181802  181707    94.7    0.00  2227.9 18173.3    0.00 18173.3 18170.4    2.90
 2020 243   138       0   22279  181794       0  181794  181699    95.4    0.00  2227.8 18172.5    0.00 18172.5 18169.5    2.94
 2020 244   139       0   22278  181787       0  181787  181691    96.2    0.00  2227.6 18171.7    0.00 18171.7 18168.7    2.98
 2020 245   140       0   22276  181779       0  181779  181682    96.4    0.00  2227.5 18170.9    0.00 18170.9 18167.8    3.01
 2020 246   141       0   22275  181771       0  181771  181675    96.7    0.00  2227.4 18170.1    0.00 18170.1 18167.0    3.05
 2020 247   142       0   22274  181765       0  181765  181667    97.3    0.00  2227.2 18169.4    0.00 18169.4 18166.3    3.08
 2020 248   143       0   22273  181758       0  181758  181660    98.0    0.00  2227.1 18168.6    0.00 18168.6 18165.5    3.12
 2020 249   144       0   22272  181751       0  181751  181653    98.9    0.00  2227.0 18167.9    0.00 18167.9 18164.7    3.16
 2020 250   145       0   22270  181745       0  181745  181645    99.9    0.00  2226.9 18167.2    0.00 18167.2 18164.0    3.19
 2020 251   146       0   22269  181738       0  181738  181637   100.9    0.00  2226.7 18166.4    0.00 18166.4 18163.2    3.23
 2020 252   147       0   22268  181730       0  181730  181629   101.4    0.00  2226.6 18165.6    0.00 18165.6 18162.3    3.26
 2020 253   148       0   22266  181720       0  181720  181621    99.4    0.00  2226.4 18164.7    0.00 18164.7 18161.5    3.22
 2020 254   149       0   22265  181712       0  181712  181614    97.7    0.00  2226.3 18164.0    0.00 18164.0 18160.8    3.18
 2020 255   150       0   22265  181704       0  181704  181608    96.2    0.00  2226.2 18163.3    0.00 18163.3 18160.2    3.15
 2020 256   151       0   22264  181701       0  181701  181603    97.5    0.00  2226.2 18162.8    0.00 18162.8 18159.6    3.20
 2020 257   152       0   22263  181697       0  181697  181598    98.9    0.00  2226.1 18162.4    0.00 18162.4 18159.2    3.24
 2020 258   153       0   22263  181693       0  181693  181593   100.0    0.00  2226.0 18161.9    0.00 18161.9 18158.6    3.28
 2020 259   154       0   22262  181687       0  181687  181586   100.8    0.00  2225.9 18161.2    0.00 18161.2 18157.9    3.32
 2020 260   155       0   22261  181680       0  181680  181579   101.1    0.00  2225.8 18160.4    0.00 18160.4 18157.1    3.34
 2020 261   156       0   22259  181672       0  181672  181570   101.1    0.00  2225.7 18159.6    0.00 18159.6 18156.3    3.35
 2020 262   157       0   22258  181664       0  181664  181563   101.2    0.00  2225.6 18158.8    0.00 18158.8 18155.4    3.37
 2020 263   158       0   22257  181656       0  181656  181555   101.5    0.00  2225.4 18158.0    0.00 18158.0 18154.6    3.39
 2020 264   159       0   22256  181649       0  181649  181547   101.9    0.00  2225.3 18157.2    0.00 18157.2 18153.8    3.41
 2020 265   160       0   22255  181641       0  181641  181539   102.3    0.00  2225.2 18156.4    0.00 18156.4 18153.0    3.43
 2020 266   161       0   22254  181633       0  181633  181531   102.6    0.00  2225.1 18155.6    0.00 18155.6 18152.1    3.45
 2020 267   162       0   22252  181625       0  181625  181522   102.6    0.00  2225.0 18154.7    0.00 18154.7 18151.3    3.46
 2020 268   163       0   22251  181617       0  181617  181514   102.7    0.00  2224.8 18153.9    0.00 18153.9 18150.4    3.47
 2020 269   164       0   22250  181608       0  181608  181505   102.8    0.00  2224.7 18153.0    0.00 18153.0 18149.5    3.48
 2020 270   165       0   22249  181599       0  181599  181496   103.0    0.00  2224.6 18152.1    0.00 18152.1 18148.6    3.49
 2020 271   166       0   22247  181590       0  181590  181487   103.2    0.00  2224.4 18151.1    0.00 18151.1 18147.6    3.50
 2020 272   167       0   22246  181580       0  181580  181478   101.1    0.00  2224.3 18150.2    0.00 18150.2 18146.7    3.46
 2020 273   168       0   22245  181570       0  181570  181470    99.4    0.00  2224.2 18149.3    0.00 18149.3 18145.9    3.41
 2020 274   169       0   22244  181560       0  181560  181462    98.0    0.00  2224.0 18148.5    0.00 18148.5 18145.1    3.38
 2020 275   170       0   22243  181552       0  181552  181455    96.7    0.00  2223.9 18147.7    0.00 18147.7 18144.4    3.34
 2020 276   171       0   22242  181544       0  181544  181449    95.7    0.00  2223.9 18147.0    0.00 18147.0 18143.7    3.32
 2020 277   172       0   22241  181537       0  181537  181442    94.7    0.00  2223.8 18146.3    0.00 18146.3 18143.1    3.29

*DSSAT Cropping System Model Ver. 4.7.5.035 -develop  JUN 14, 2021 14:17:00

*RUN   2        : 20 IRRIG, PETPEN KCB..... MZCER047 KSRT2001    2
 MODEL          : MZCER047 - Maize
 EXPERIMENT     : KSRT2001 SB ARM 2020 KS, IRRIGATED
 DATA PATH      :
 TREATMENT  2   : 20 IRRIG, PETPEN KCB..... MZCER047
  
@YEAR DOY   DAS    OMAC    SCDD    SOCD    SC0D    SCTD   SOMCT    LCTD    ONAC    SNDD    SOND    SN0D    SNTD   SOMNT    LNTD
 2020 105     0       0   22422  182825       0  182825  182825     0.0    0.00  2242.2 18282.5    0.00 18282.5 18282.5    0.00
 2020 106     1       0   22421  182819       0  182819  182819     0.0    0.00  2242.1 18281.9    0.00 18281.9 18281.9    0.00
 2020 107     2       0   22421  182814       0  182814  182814     0.0    0.00  2242.1 18281.4    0.00 18281.4 18281.4    0.00
 2020 108     3       0   22420  182808       0  182808  182808     0.0    0.00  2242.0 18280.8    0.00 18280.8 18280.8    0.00
 2020 109     4       0   22419  182803       0  182803  182803     0.0    0.00  2241.9 18280.3    0.00 18280.3 18280.3    0.00
 2020 110     5       0   22419  182798       0  182798  182798     0.0    0.00  2241.9 18279.8    0.00 18279.8 18279.8    0.00
 2020 111     6       0   22418  182792       0  182792  182792     0.0    0.00  2241.8 18279.2    0.00 18279.2 18279.2    0.00
 2020 112     7       0   22417  182786       0  182786  182786     0.0    0.00  2241.7 18278.6    0.00 18278.6 18278.6    0.00
 2020 113     8       0   22416  182779       0  182779  182779     0.0    0.00  2241.6 18277.9    0.00 18277.9 18277.9    0.00
 2020 114     9       0   22415  182772       0  182772  182772     0.0    0.00  2241.5 18277.2    0.00 18277.2 18277.2    0.00
 2020 115    10       0   22414  182765       0  182765  182765     0.0    0.00  2241.4 18276.5    0.00 18276.5 18276.5    0.00
 2020 116    11       0   22413  182758       0  182758  182758     0.0    0.00  2241.3 18275.8    0.00 18275.8 18275.8    0.00
 2020 117    12       0   22413  182751       0  182751  182751     0.0    0.00  2241.3 18275.1    0.00 18275.1 18275.1    0.00
 2020 118    13       0   22412  182744       0  182744  182744     0.0    0.00  2241.2 18274.4    0.00 18274.4 18274.4    0.00
 2020 119    14       0   22411  182736       0  182736  182736     0.0    0.00  2241.1 18273.6    0.00 18273.6 18273.6    0.00
 2020 120    15       0   22410  182728       0  182728  182728     0.0    0.00  2241.0 18272.8    0.00 18272.8 18272.8    0.00
 2020 121    16       0   22408  182719       0  182719  182719     0.0    0.00  2240.8 18271.9    0.00 18271.9 18271.9    0.00
 2020 122    17       0   22407  182709       0  182709  182709     0.0    0.00  2240.7 18270.9    0.00 18270.9 18270.9    0.00
 2020 123    18       0   22406  182699       0  182699  182699     0.0    0.00  2240.6 18269.9    0.00 18269.9 18269.9    0.00
 2020 124    19       0   22404  182689       0  182689  182689     0.0    0.00  2240.4 18268.9    0.00 18268.9 18268.9    0.00
 2020 125    20       0   22403  182679       0  182679  182679     0.0    0.00  2240.3 18267.9    0.00 18267.9 18267.9    0.00
 2020 126    21       0   22402  182669       0  182669  182669     0.0    0.00  2240.2 18266.9    0.00 18266.9 18266.9    0.00
 2020 127    22       0   22400  182660       0  182660  182660     0.0    0.00  2240.0 18266.0    0.00 18266.0 18266.0    0.00
 2020 128    23       0   22399  182651       0  182651  182651     0.0    0.00  2239.9 18265.1    0.00 18265.1 18265.1    0.00
 2020 129    24       0   22398  182642       0  182642  182642     0.0    0.00  2239.8 18264.2    0.00 18264.2 18264.2    0.00
 2020 130    25       0   22397  182634       0  182634  182634     0.0    0.00  2239.7 18263.4    0.00 18263.4 18263.4    0.00
 2020 131    26       0   22396  182626       0  182626  182626     0.0    0.00  2239.6 18262.6    0.00 18262.6 18262.6    0.00
 2020 132    27       0   22395  182619       0  182619  182619     0.0    0.00  2239.5 18261.9    0.00 18261.9 18261.9    0.00
 2020 133    28       0   22394  182612       0  182612  182612     0.0    0.00  2239.4 18261.2    0.00 18261.2 18261.2    0.00
 2020 134    29       0   22393  182608       0  182608  182608     0.0    0.00  2239.3 18260.8    0.00 18260.8 18260.8    0.00
 2020 135    30       0   22393  182603       0  182603  182603     0.0    0.00  2239.3 18260.3    0.00 18260.3 18260.3    0.00
 2020 136    31       0   22392  182597       0  182597  182597     0.0    0.00  2239.2 18259.7    0.00 18259.7 18259.7    0.00
 2020 137    32       0   22392  182592       0  182592  182592     0.0    0.00  2239.2 18259.2    0.00 18259.2 18259.2    0.00
 2020 138    33       0   22391  182585       0  182585  182585     0.0    0.00  2239.1 18258.5    0.00 18258.5 18258.5    0.00
 2020 139    34       0   22390  182576       0  182576  182576     0.0    0.00  2239.0 18257.6    0.00 18257.6 18257.6    0.00
 2020 140    35       0   22388  182567       0  182567  182567     0.0    0.00  2238.8 18256.7    0.00 18256.7 18256.7    0.00
 2020 141    36       0   22387  182558       0  182558  182558     0.0    0.00  2238.7 18255.8    0.00 18255.8 18255.8    0.00
 2020 142    37       0   22386  182549       0  182549  182549     0.0    0.00  2238.6 18254.9    0.00 18254.9 18254.9    0.00
 2020 143    38       0   22385  182539       0  182539  182539     0.0    0.00  2238.5 18254.0    0.00 18254.0 18254.0    0.00
 2020 144    39       0   22383  182530       0  182530  182530     0.0    0.00  2238.3 18253.0    0.00 18253.0 18253.0    0.00
 2020 145    40       0   22382  182520       0  182520  182520     0.0    0.00  2238.2 18252.1    0.00 18252.1 18252.1    0.00
 2020 146    41       0   22381  182511       0  182511  182511     0.0    0.00  2238.1 18251.1    0.00 18251.1 18251.1    0.00
 2020 147    42       0   22379  182502       0  182502  182502     0.0    0.00  2237.9 18250.2    0.00 18250.2 18250.2    0.00
 2020 148    43       0   22378  182493       0  182493  182493     0.0    0.00  2237.8 18249.3    0.00 18249.3 18249.3    0.00
 2020 149    44       0   22377  182484       0  182484  182484     0.0    0.00  2237.7 18248.4    0.00 18248.4 18248.4    0.00
 2020 150    45       0   22376  182476       0  182476  182476     0.0    0.00  2237.6 18247.6    0.00 18247.6 18247.6    0.00
 2020 151    46       0   22375  182467       0  182467  182467     0.0    0.00  2237.5 18246.7    0.00 18246.7 18246.7    0.00
 2020 152    47       0   22373  182457       0  182457  182457     0.0    0.00  2237.3 18245.7    0.00 18245.7 18245.7    0.00
 2020 153    48       0   22372  182446       0  182446  182446     0.0    0.00  2237.2 18244.6    0.00 18244.6 18244.6    0.00
 2020 154    49       0   22370  182434       0  182434  182434     0.0    0.00  2237.0 18243.4    0.00 18243.4 18243.4    0.00
 2020 155    50       0   22369  182422       0  182422  182422     0.0    0.00  2236.9 18242.2    0.00 18242.2 18242.2    0.00
 2020 156    51       0   22367  182409       0  182409  182409     0.0    0.00  2236.7 18240.9    0.00 18240.9 18240.9    0.00
 2020 157    52       0   22365  182396       0  182396  182396     0.0    0.00  2236.5 18239.6    0.00 18239.6 18239.6    0.00
 2020 158    53       0   22363  182383       0  182383  182383     0.0    0.00  2236.3 18238.3    0.00 18238.3 18238.3    0.00
 2020 159    54       0   22361  182370       0  182370  182370     0.0    0.00  2236.1 18237.0    0.00 18237.0 18237.0    0.00
 2020 160    55       0   22360  182356       0  182356  182356     0.0    0.00  2236.0 18235.6    0.00 18235.6 18235.6    0.00
 2020 161    56       0   22358  182343       0  182343  182343     0.0    0.00  2235.8 18234.3    0.00 18234.3 18234.3    0.00
 2020 162    57       0   22356  182330       0  182330  182330     0.0    0.00  2235.6 18233.0    0.00 18233.0 18233.0    0.00
 2020 163    58       0   22354  182318       0  182318  182318     0.0    0.00  2235.4 18231.8    0.00 18231.8 18231.8    0.00
 2020 164    59       0   22353  182307       0  182307  182307     0.0    0.00  2235.3 18230.7    0.00 18230.7 18230.7    0.00
 2020 165    60       0   22351  182296       0  182296  182296     0.0    0.00  2235.1 18229.6    0.00 18229.6 18229.6    0.00
 2020 166    61       0   22350  182284       0  182284  182284     0.0    0.00  2235.0 18228.4    0.00 18228.4 18228.4    0.00
 2020 167    62       0   22348  182272       0  182272  182272     0.0    0.00  2234.8 18227.2    0.00 18227.2 18227.2    0.00
 2020 168    63       0   22346  182259       0  182259  182259     0.0    0.00  2234.6 18225.9    0.00 18225.9 18225.9    0.00
 2020 169    64       0   22344  182246       0  182246  182246     0.0    0.00  2234.4 18224.6    0.00 18224.6 18224.6    0.00
 2020 170    65       0   22343  182233       0  182233  182233     0.1    0.00  2234.3 18223.3    0.00 18223.3 18223.3    0.00
 2020 171    66       0   22341  182220       0  182220  182220     0.1    0.00  2234.1 18222.0    0.00 18222.0 18222.0    0.00
 2020 172    67       0   22339  182208       0  182208  182208     0.2    0.00  2233.9 18220.8    0.00 18220.8 18220.8    0.00
 2020 173    68       0   22338  182197       0  182197  182197     0.2    0.00  2233.8 18219.7    0.00 18219.7 18219.7    0.01
 2020 174    69       0   22336  182186       0  182186  182186     0.3    0.00  2233.6 18218.6    0.00 18218.6 18218.6    0.01
 2020 175    70       0   22335  182175       0  182175  182175     0.3    0.00  2233.5 18217.5    0.00 18217.5 18217.5    0.01
 2020 176    71       0   22333  182164       0  182164  182164     0.4    0.00  2233.3 18216.4    0.00 18216.4 18216.4    0.01
 2020 177    72       0   22332  182153       0  182153  182152     0.5    0.00  2233.2 18215.2    0.00 18215.2 18215.2    0.02
 2020 178    73       0   22330  182141       0  182141  182140     0.7    0.00  2233.0 18214.0    0.00 18214.0 18214.0    0.02
 2020 179    74       0   22328  182128       0  182128  182128     0.8    0.00  2232.8 18212.8    0.00 18212.8 18212.8    0.03
 2020 180    75       0   22327  182116       0  182116  182115     1.0    0.00  2232.7 18211.6    0.00 18211.6 18211.5    0.03
 2020 181    76       0   22326  182104       0  182104  182103     1.3    0.00  2232.6 18210.3    0.00 18210.3 18210.3    0.04
 2020 182    77       0   22324  182091       0  182091  182089     1.6    0.00  2232.4 18209.0    0.00 18209.0 18208.9    0.05
 2020 183    78       0   22322  182078       0  182078  182076     2.0    0.00  2232.2 18207.7    0.00 18207.7 18207.6    0.06
 2020 184    79       0   22321  182066       0  182066  182064     2.4    0.00  2232.1 18206.4    0.00 18206.4 18206.4    0.08
 2020 185    80       0   22319  182055       0  182055  182052     3.0    0.00  2231.9 18205.3    0.00 18205.3 18205.2    0.10
 2020 186    81       0   22318  182044       0  182044  182040     3.7    0.00  2231.8 18204.2    0.00 18204.2 18204.0    0.12
 2020 187    82       0   22317  182034       0  182034  182030     4.5    0.00  2231.7 18203.1    0.00 18203.1 18203.0    0.14
 2020 188    83       0   22316  182026       0  182026  182020     5.4    0.00  2231.6 18202.2    0.00 18202.2 18202.0    0.17
 2020 189    84       0   22316  182017       0  182017  182011     6.3    0.00  2231.6 18201.3    0.00 18201.3 18201.1    0.20
 2020 190    85       0   22315  182010       0  182010  182002     7.5    0.00  2231.5 18200.5    0.00 18200.5 18200.2    0.23
 2020 191    86       0   22314  182002       0  182002  181994     8.8    0.00  2231.4 18199.6    0.00 18199.6 18199.4    0.27
 2020 192    87       0   22314  181995       0  181995  181985    10.2    0.00  2231.4 18198.8    0.00 18198.8 18198.5    0.32
 2020 193    88       0   22313  181989       0  181989  181977    11.7    0.00  2231.3 18198.1    0.00 18198.1 18197.7    0.36
 2020 194    89       0   22313  181982       0  181982  181969    13.3    0.00  2231.3 18197.3    0.00 18197.3 18196.9    0.41
 2020 195    90       0   22312  181976       0  181976  181962    14.9    0.00  2231.2 18196.6    0.00 18196.6 18196.2    0.45
 2020 196    91       0   22312  181971       0  181971  181954    16.6    0.00  2231.2 18195.9    0.00 18195.9 18195.4    0.50
 2020 197    92       0   22311  181966       0  181966  181947    18.4    0.00  2231.1 18195.3    0.00 18195.3 18194.7    0.56
 2020 198    93       0   22311  181961       0  181961  181940    20.2    0.00  2231.1 18194.6    0.00 18194.6 18194.0    0.61
 2020 199    94       0   22310  181956       0  181956  181934    22.1    0.00  2231.0 18194.0    0.00 18194.0 18193.4    0.66
 2020 200    95       0   22310  181951       0  181951  181927    24.0    0.00  2231.0 18193.4    0.00 18193.4 18192.7    0.73
 2020 201    96       0   22309  181944       0  181944  181920    23.8    0.00  2230.9 18192.7    0.00 18192.7 18192.0    0.72
 2020 202    97       0   22309  181936       0  181936  181913    23.7    0.00  2230.9 18192.0    0.00 18192.0 18191.3    0.72
 2020 203    98       0   22308  181932       0  181932  181906    25.8    0.00  2230.8 18191.4    0.00 18191.4 18190.6    0.78
 2020 204    99       0   22308  181928       0  181928  181899    28.1    0.00  2230.8 18190.8    0.00 18190.8 18189.9    0.85
 2020 205   100       0   22308  181924       0  181924  181893    30.5    0.00  2230.8 18190.2    0.00 18190.2 18189.3    0.93
 2020 206   101       0   22307  181917       0  181917  181887    30.4    0.00  2230.7 18189.6    0.00 18189.6 18188.7    0.93
 2020 207   102       0   22307  181911       0  181911  181881    30.4    0.00  2230.7 18189.0    0.00 18189.0 18188.0    0.93
 2020 208   103       0   22306  181905       0  181905  181874    30.4    0.00  2230.6 18188.3    0.00 18188.3 18187.4    0.93
 2020 209   104       0   22305  181895       0  181895  181865    29.7    0.00  2230.5 18187.4    0.00 18187.4 18186.5    0.92
 2020 210   105       0   22303  181886       0  181886  181857    28.9    0.00  2230.3 18186.5    0.00 18186.5 18185.6    0.91
 2020 211   106       0   22302  181877       0  181877  181848    28.3    0.00  2230.1 18185.7    0.00 18185.7 18184.8    0.90
 2020 212   107       0   22300  181868       0  181868  181840    27.8    0.00  2230.0 18184.8    0.00 18184.8 18184.0    0.89
 2020 213   108       0   22299  181860       0  181860  181832    27.3    0.00  2229.9 18184.1    0.00 18184.1 18183.2    0.88
 2020 214   109       0   22297  181852       0  181852  181825    27.0    0.00  2229.7 18183.3    0.00 18183.3 18182.5    0.87
 2020 215   110       0   22296  181845       0  181845  181818    26.7    0.00  2229.6 18182.6    0.00 18182.6 18181.7    0.87
 2020 216   111       0   22295  181837       0  181837  181811    26.5    0.00  2229.5 18181.9    0.00 18181.9 18181.0    0.87
 2020 217   112       0   22294  181831       0  181831  181804    26.3    0.00  2229.4 18181.2    0.00 18181.2 18180.3    0.86
 2020 218   113       0   22294  181824       0  181824  181797    26.2    0.00  2229.3 18180.5    0.00 18180.5 18179.7    0.86
 2020 219   114       0   22293  181817       0  181817  181791    26.1    0.00  2229.3 18179.9    0.00 18179.9 18179.0    0.86
 2020 220   115       0   22292  181810       0  181810  181784    25.9    0.00  2229.2 18179.2    0.00 18179.2 18178.3    0.85
 2020 221   116       0   22291  181803       0  181803  181777    25.8    0.00  2229.1 18178.5    0.00 18178.5 18177.7    0.85
 2020 222   117       0   22290  181796       0  181796  181770    25.7    0.00  2229.0 18177.8    0.00 18177.8 18177.0    0.85
 2020 223   118       0   22290  181789       0  181789  181764    25.6    0.00  2228.9 18177.1    0.00 18177.1 18176.3    0.85
 2020 224   119       0   22289  181783       0  181783  181757    25.5    0.00  2228.9 18176.5    0.00 18176.5 18175.6    0.85
 2020 225   120       0   22288  181779       0  181779  181751    28.3    0.00  2228.8 18175.9    0.00 18175.9 18175.0    0.92
 2020 226   121       0   22288  181775       0  181775  181744    31.1    0.00  2228.8 18175.3    0.00 18175.3 18174.3    1.00
 2020 227   122       0   22287  181772       0  181772  181738    33.9    0.00  2228.7 18174.8    0.00 18174.8 18173.7    1.07
 2020 228   123       0   22287  181769       0  181769  181732    36.7    0.00  2228.7 18174.3    0.00 18174.3 18173.1    1.15
 2020 229   124       0   22286  181766       0  181766  181726    39.5    0.00  2228.6 18173.8    0.00 18173.8 18172.6    1.22
 2020 230   125       0   22286  181763       0  181763  181721    42.2    0.00  2228.6 18173.3    0.00 18173.3 18172.0    1.29
 2020 231   126       0   22285  181759       0  181759  181714    44.7    0.00  2228.5 18172.7    0.00 18172.7 18171.3    1.36
 2020 232   127       0   22284  181755       0  181755  181707    47.2    0.00  2228.4 18172.1    0.00 18172.1 18170.6    1.43
 2020 233   128       0   22284  181751       0  181751  181701    49.8    0.00  2228.3 18171.5    0.00 18171.5 18170.0    1.51
 2020 234   129       0   22283  181747       0  181747  181695    52.5    0.00  2228.3 18171.0    0.00 18171.0 18169.4    1.58
 2020 235   130       0   22282  181744       0  181744  181689    55.2    0.00  2228.2 18170.5    0.00 18170.5 18168.8    1.65
 2020 236   131       0   22282  181741       0  181741  181683    57.9    0.00  2228.1 18170.0    0.00 18170.0 18168.2    1.72
 2020 237   132       0   22281  181738       0  181738  181678    60.6    0.00  2228.1 18169.5    0.00 18169.5 18167.7    1.80
 2020 238   133       0   22280  181734       0  181734  181671    62.9    0.00  2228.0 18168.9    0.00 18168.9 18167.0    1.87
 2020 239   134       0   22280  181730       0  181730  181665    65.4    0.00  2227.9 18168.3    0.00 18168.3 18166.3    1.93
 2020 240   135       0   22279  181726       0  181726  181658    67.9    0.00  2227.9 18167.7    0.00 18167.7 18165.7    2.00
 2020 241   136       0   22278  181723       0  181723  181652    70.6    0.00  2227.8 18167.2    0.00 18167.2 18165.1    2.08
 2020 242   137       0   22277  181717       0  181717  181644    72.2    0.00  2227.6 18166.4    0.00 18166.4 18164.3    2.13
 2020 243   138       0   22275  181710       0  181710  181637    73.8    0.00  2227.5 18165.7    0.00 18165.7 18163.5    2.19
 2020 244   139       0   22274  181704       0  181704  181629    75.4    0.00  2227.3 18165.0    0.00 18165.0 18162.7    2.25
 2020 245   140       0   22272  181697       0  181697  181621    76.6    0.00  2227.2 18164.2    0.00 18164.2 18161.9    2.30
 2020 246   141       0   22271  181691       0  181691  181613    78.0    0.00  2227.0 18163.5    0.00 18163.5 18161.1    2.35
 2020 247   142       0   22270  181686       0  181686  181606    79.5    0.00  2226.9 18162.8    0.00 18162.8 18160.4    2.40
 2020 248   143       0   22269  181680       0  181680  181599    81.0    0.00  2226.8 18162.1    0.00 18162.1 18159.7    2.45
 2020 249   144       0   22267  181674       0  181674  181592    82.6    0.00  2226.6 18161.4    0.00 18161.4 18158.9    2.51
 2020 250   145       0   22266  181668       0  181668  181584    84.0    0.00  2226.5 18160.7    0.00 18160.7 18158.2    2.56
 2020 251   146       0   22265  181662       0  181662  181576    85.4    0.00  2226.4 18159.9    0.00 18159.9 18157.3    2.60
 2020 252   147       0   22263  181654       0  181654  181568    86.4    0.00  2226.2 18159.1    0.00 18159.1 18156.5    2.64
 2020 253   148       0   22262  181645       0  181645  181560    84.8    0.00  2226.1 18158.3    0.00 18158.3 18155.7    2.62
 2020 254   149       0   22261  181635       0  181635  181553    82.8    0.00  2226.0 18157.5    0.00 18157.5 18154.9    2.59
 2020 255   150       0   22260  181630       0  181630  181547    83.8    0.00  2225.9 18156.9    0.00 18156.9 18154.3    2.64
 2020 256   151       0   22259  181626       0  181626  181541    85.0    0.00  2225.8 18156.4    0.00 18156.4 18153.7    2.69
 2020 257   152       0   22259  181623       0  181623  181537    86.2    0.00  2225.7 18156.0    0.00 18156.0 18153.2    2.74
 2020 258   153       0   22258  181618       0  181618  181531    87.1    0.00  2225.7 18155.4    0.00 18155.4 18152.7    2.78
 2020 259   154       0   22257  181611       0  181611  181524    87.5    0.00  2225.6 18154.7    0.00 18154.7 18151.9    2.81
 2020 260   155       0   22256  181604       0  181604  181516    87.8    0.00  2225.4 18153.9    0.00 18153.9 18151.1    2.85
 2020 261   156       0   22255  181595       0  181595  181507    87.4    0.00  2225.3 18153.1    0.00 18153.1 18150.2    2.87
 2020 262   157       0   22253  181586       0  181586  181499    87.0    0.00  2225.2 18152.2    0.00 18152.2 18149.3    2.89
 2020 263   158       0   22252  181577       0  181577  181491    86.6    0.00  2225.1 18151.4    0.00 18151.4 18148.5    2.90
 2020 264   159       0   22251  181569       0  181569  181482    86.3    0.00  2225.0 18150.5    0.00 18150.5 18147.6    2.92
 2020 265   160       0   22250  181560       0  181560  181474    85.9    0.00  2224.8 18149.6    0.00 18149.6 18146.7    2.93
 2020 266   161       0   22249  181551       0  181551  181465    85.9    0.00  2224.7 18148.7    0.00 18148.7 18145.8    2.95
 2020 267   162       0   22247  181541       0  181541  181456    85.2    0.00  2224.6 18147.8    0.00 18147.8 18144.9    2.95
 2020 268   163       0   22246  181531       0  181531  181447    84.3    0.00  2224.4 18146.9    0.00 18146.9 18143.9    2.96
 2020 269   164       0   22245  181521       0  181521  181438    83.3    0.00  2224.3 18145.9    0.00 18145.9 18142.9    2.95
 2020 270   165       0   22244  181510       0  181510  181428    82.3    0.00  2224.2 18144.8    0.00 18144.8 18141.9    2.95
 2020 271   166       0   22242  181499       0  181499  181418    81.2    0.00  2224.0 18143.7    0.00 18143.7 18140.8    2.94
 2020 272   167       0   22241  181486       0  181486  181408    78.0    0.00  2223.9 18142.7    0.00 18142.7 18139.8    2.86
 2020 273   168       0   22239  181474       0  181474  181398    75.1    0.00  2223.7 18141.6    0.00 18141.6 18138.8    2.80
 2020 274   169       0   22238  181462       0  181462  181389    72.6    0.00  2223.6 18140.6    0.00 18140.6 18137.9    2.74
 2020 275   170       0   22237  181451       0  181451  181381    70.4    0.00  2223.5 18139.7    0.00 18139.7 18137.0    2.68
 2020 276   171       0   22236  181442       0  181442  181374    68.5    0.00  2223.4 18138.9    0.00 18138.9 18136.3    2.63
 2020 277   172       0   22235  181433       0  181433  181366    66.7    0.00  2223.3 18138.1    0.00 18138.1 18135.5    2.58

*DSSAT Cropping System Model Ver. 4.7.5.035 -develop  JUN 14, 2021 14:17:00

*RUN   3        : 20 IRRIG, ASCE SHORT..... MZCER047 KSRT2001    3
 MODEL          : MZCER047 - Maize
 EXPERIMENT     : KSRT2001 SB ARM 2020 KS, IRRIGATED
 DATA PATH      :
 TREATMENT  3   : 20 IRRIG, ASCE SHORT..... MZCER047
  
@YEAR DOY   DAS    OMAC    SCDD    SOCD    SC0D    SCTD   SOMCT    LCTD    ONAC    SNDD    SOND    SN0D    SNTD   SOMNT    LNTD
 2020 105     0       0   22422  182825       0  182825  182825     0.0    0.00  2242.2 18282.5    0.00 18282.5 18282.5    0.00
 2020 106     1       0   22421  182819       0  182819  182819     0.0    0.00  2242.1 18281.9    0.00 18281.9 18281.9    0.00
 2020 107     2       0   22421  182814       0  182814  182814     0.0    0.00  2242.1 18281.4    0.00 18281.4 18281.4    0.00
 2020 108     3       0   22420  182808       0  182808  182808     0.0    0.00  2242.0 18280.8    0.00 18280.8 18280.8    0.00
 2020 109     4       0   22419  182803       0  182803  182803     0.0    0.00  2241.9 18280.3    0.00 18280.3 18280.3    0.00
 2020 110     5       0   22419  182798       0  182798  182798     0.0    0.00  2241.9 18279.8    0.00 18279.8 18279.8    0.00
 2020 111     6       0   22418  182792       0  182792  182792     0.0    0.00  2241.8 18279.2    0.00 18279.2 18279.2    0.00
 2020 112     7       0   22417  182786       0  182786  182786     0.0    0.00  2241.7 18278.6    0.00 18278.6 18278.6    0.00
 2020 113     8       0   22416  182779       0  182779  182779     0.0    0.00  2241.6 18277.9    0.00 18277.9 18277.9    0.00
 2020 114     9       0   22415  182772       0  182772  182772     0.0    0.00  2241.5 18277.2    0.00 18277.2 18277.2    0.00
 2020 115    10       0   22414  182765       0  182765  182765     0.0    0.00  2241.4 18276.5    0.00 18276.5 18276.5    0.00
 2020 116    11       0   22414  182758       0  182758  182758     0.0    0.00  2241.4 18275.8    0.00 18275.8 18275.8    0.00
 2020 117    12       0   22413  182751       0  182751  182751     0.0    0.00  2241.3 18275.1    0.00 18275.1 18275.1    0.00
 2020 118    13       0   22412  182744       0  182744  182744     0.0    0.00  2241.2 18274.4    0.00 18274.4 18274.4    0.00
 2020 119    14       0   22411  182736       0  182736  182736     0.0    0.00  2241.1 18273.6    0.00 18273.6 18273.6    0.00
 2020 120    15       0   22410  182728       0  182728  182728     0.0    0.00  2241.0 18272.8    0.00 18272.8 18272.8    0.00
 2020 121    16       0   22408  182719       0  182719  182719     0.0    0.00  2240.8 18271.9    0.00 18271.9 18271.9    0.00
 2020 122    17       0   22407  182709       0  182709  182709     0.0    0.00  2240.7 18270.9    0.00 18270.9 18270.9    0.00
 2020 123    18       0   22406  182699       0  182699  182699     0.0    0.00  2240.6 18269.9    0.00 18269.9 18269.9    0.00
 2020 124    19       0   22404  182689       0  182689  182689     0.0    0.00  2240.4 18268.9    0.00 18268.9 18268.9    0.00
 2020 125    20       0   22403  182680       0  182680  182680     0.0    0.00  2240.3 18268.0    0.00 18268.0 18268.0    0.00
 2020 126    21       0   22402  182670       0  182670  182670     0.0    0.00  2240.2 18267.0    0.00 18267.0 18267.0    0.00
 2020 127    22       0   22400  182660       0  182660  182660     0.0    0.00  2240.0 18266.0    0.00 18266.0 18266.0    0.00
 2020 128    23       0   22399  182651       0  182651  182651     0.0    0.00  2239.9 18265.1    0.00 18265.1 18265.1    0.00
 2020 129    24       0   22398  182642       0  182642  182642     0.0    0.00  2239.8 18264.2    0.00 18264.2 18264.2    0.00
 2020 130    25       0   22397  182634       0  182634  182634     0.0    0.00  2239.7 18263.4    0.00 18263.4 18263.4    0.00
 2020 131    26       0   22396  182626       0  182626  182626     0.0    0.00  2239.6 18262.6    0.00 18262.6 18262.6    0.00
 2020 132    27       0   22395  182619       0  182619  182619     0.0    0.00  2239.5 18261.9    0.00 18261.9 18261.9    0.00
 2020 133    28       0   22394  182613       0  182613  182613     0.0    0.00  2239.4 18261.3    0.00 18261.3 18261.3    0.00
 2020 134    29       0   22393  182608       0  182608  182608     0.0    0.00  2239.3 18260.8    0.00 18260.8 18260.8    0.00
 2020 135    30       0   22393  182603       0  182603  182603     0.0    0.00  2239.3 18260.3    0.00 18260.3 18260.3    0.00
 2020 136    31       0   22392  182598       0  182598  182598     0.0    0.00  2239.2 18259.8    0.00 18259.8 18259.8    0.00
 2020 137    32       0   22392  182592       0  182592  182592     0.0    0.00  2239.2 18259.2    0.00 18259.2 18259.2    0.00
 2020 138    33       0   22391  182585       0  182585  182585     0.0    0.00  2239.1 18258.5    0.00 18258.5 18258.5    0.00
 2020 139    34       0   22390  182577       0  182577  182577     0.0    0.00  2239.0 18257.7    0.00 18257.7 18257.7    0.00
 2020 140    35       0   22388  182568       0  182568  182568     0.0    0.00  2238.8 18256.8    0.00 18256.8 18256.8    0.00
 2020 141    36       0   22387  182558       0  182558  182558     0.0    0.00  2238.7 18255.8    0.00 18255.8 18255.8    0.00
 2020 142    37       0   22386  182549       0  182549  182549     0.0    0.00  2238.6 18254.9    0.00 18254.9 18254.9    0.00
 2020 143    38       0   22385  182540       0  182540  182540     0.0    0.00  2238.5 18254.0    0.00 18254.0 18254.0    0.00
 2020 144    39       0   22383  182531       0  182531  182531     0.0    0.00  2238.3 18253.1    0.00 18253.1 18253.1    0.00
 2020 145    40       0   22382  182521       0  182521  182521     0.0    0.00  2238.2 18252.1    0.00 18252.1 18252.1    0.00
 2020 146    41       0   22381  182512       0  182512  182512     0.0    0.00  2238.1 18251.1    0.00 18251.1 18251.1    0.00
 2020 147    42       0   22380  182502       0  182502  182502     0.0    0.00  2238.0 18250.2    0.00 18250.2 18250.2    0.00
 2020 148    43       0   22378  182494       0  182494  182494     0.0    0.00  2237.8 18249.4    0.00 18249.4 18249.4    0.00
 2020 149    44       0   22377  182485       0  182485  182485     0.0    0.00  2237.7 18248.5    0.00 18248.5 18248.5    0.00
 2020 150    45       0   22376  182476       0  182476  182476     0.0    0.00  2237.6 18247.6    0.00 18247.6 18247.6    0.00
 2020 151    46       0   22375  182468       0  182468  182468     0.0    0.00  2237.5 18246.8    0.00 18246.8 18246.8    0.00
 2020 152    47       0   22374  182458       0  182458  182458     0.0    0.00  2237.4 18245.8    0.00 18245.8 18245.8    0.00
 2020 153    48       0   22372  182447       0  182447  182447     0.0    0.00  2237.2 18244.7    0.00 18244.7 18244.7    0.00
 2020 154    49       0   22370  182435       0  182435  182435     0.0    0.00  2237.0 18243.5    0.00 18243.5 18243.5    0.00
 2020 155    50       0   22369  182423       0  182423  182423     0.0    0.00  2236.9 18242.3    0.00 18242.3 18242.3    0.00
 2020 156    51       0   22367  182410       0  182410  182410     0.0    0.00  2236.7 18241.0    0.00 18241.0 18241.0    0.00
 2020 157    52       0   22365  182397       0  182397  182397     0.0    0.00  2236.5 18239.7    0.00 18239.7 18239.7    0.00
 2020 158    53       0   22363  182384       0  182384  182384     0.0    0.00  2236.3 18238.4    0.00 18238.4 18238.4    0.00
 2020 159    54       0   22361  182371       0  182371  182371     0.0    0.00  2236.1 18237.1    0.00 18237.1 18237.1    0.00
 2020 160    55       0   22360  182358       0  182358  182358     0.0    0.00  2236.0 18235.8    0.00 18235.8 18235.8    0.00
 2020 161    56       0   22358  182344       0  182344  182344     0.0    0.00  2235.8 18234.4    0.00 18234.4 18234.4    0.00
 2020 162    57       0   22356  182332       0  182332  182332     0.0    0.00  2235.6 18233.2    0.00 18233.2 18233.2    0.00
 2020 163    58       0   22354  182320       0  182320  182320     0.0    0.00  2235.4 18232.0    0.00 18232.0 18232.0    0.00
 2020 164    59       0   22353  182309       0  182309  182309     0.1    0.00  2235.3 18230.9    0.00 18230.9 18230.9    0.00
 2020 165    60       0   22351  182298       0  182298  182298     0.2    0.00  2235.1 18229.8    0.00 18229.8 18229.8    0.01
 2020 166    61       0   22350  182287       0  182287  182286     0.3    0.00  2235.0 18228.7    0.00 18228.7 18228.6    0.01
 2020 167    62       0   22348  182275       0  182275  182274     0.4    0.00  2234.8 18227.5    0.00 18227.5 18227.4    0.01
 2020 168    63       0   22346  182262       0  182262  182262     0.6    0.00  2234.6 18226.2    0.00 18226.2 18226.2    0.02
 2020 169    64       0   22345  182251       0  182251  182250     0.8    0.00  2234.5 18225.0    0.00 18225.0 18225.0    0.02
 2020 170    65       0   22343  182239       0  182239  182238     1.0    0.00  2234.3 18223.9    0.00 18223.9 18223.8    0.03
 2020 171    66       0   22341  182228       0  182228  182227     1.3    0.00  2234.1 18222.8    0.00 18222.8 18222.7    0.04
 2020 172    67       0   22339  182218       0  182218  182217     1.7    0.00  2233.9 18221.7    0.00 18221.7 18221.7    0.06
 2020 173    68       0   22338  182209       0  182209  182207     2.2    0.00  2233.8 18220.8    0.00 18220.8 18220.7    0.07
 2020 174    69       0   22337  182200       0  182200  182197     2.7    0.00  2233.7 18219.8    0.00 18219.8 18219.7    0.09
 2020 175    70       0   22335  182191       0  182191  182188     3.3    0.00  2233.5 18218.9    0.00 18218.9 18218.7    0.10
 2020 176    71       0   22334  182182       0  182182  182178     4.0    0.00  2233.4 18217.9    0.00 18217.9 18217.8    0.13
 2020 177    72       0   22332  182173       0  182173  182168     4.9    0.00  2233.2 18216.9    0.00 18216.9 18216.8    0.15
 2020 178    73       0   22331  182163       0  182163  182158     5.8    0.00  2233.1 18215.9    0.00 18215.9 18215.8    0.18
 2020 179    74       0   22329  182155       0  182155  182148     6.9    0.00  2232.9 18215.0    0.00 18215.0 18214.8    0.22
 2020 180    75       0   22328  182147       0  182147  182138     8.0    0.00  2232.8 18214.1    0.00 18214.1 18213.8    0.25
 2020 181    76       0   22327  182139       0  182139  182129     9.4    0.00  2232.7 18213.2    0.00 18213.2 18212.9    0.30
 2020 182    77       0   22326  182130       0  182130  182119    10.8    0.00  2232.6 18212.3    0.00 18212.3 18211.9    0.34
 2020 183    78       0   22325  182122       0  182122  182110    12.3    0.00  2232.5 18211.3    0.00 18211.3 18211.0    0.39
 2020 184    79       0   22324  182115       0  182115  182101    14.2    0.00  2232.4 18210.5    0.00 18210.5 18210.1    0.45
 2020 185    80       0   22324  182109       0  182109  182093    16.2    0.00  2232.3 18209.8    0.00 18209.8 18209.3    0.51
 2020 186    81       0   22323  182103       0  182103  182085    18.4    0.00  2232.3 18209.0    0.00 18209.0 18208.5    0.58
 2020 187    82       0   22322  182098       0  182098  182077    20.7    0.00  2232.2 18208.3    0.00 18208.3 18207.7    0.65
 2020 188    83       0   22322  182091       0  182091  182070    20.6    0.00  2232.2 18207.6    0.00 18207.6 18207.0    0.65
 2020 189    84       0   22321  182086       0  182086  182063    23.0    0.00  2232.1 18207.0    0.00 18207.0 18206.3    0.73
 2020 190    85       0   22321  182082       0  182082  182056    25.4    0.00  2232.1 18206.4    0.00 18206.4 18205.6    0.81
 2020 191    86       0   22320  182077       0  182077  182049    27.9    0.00  2232.0 18205.8    0.00 18205.8 18204.9    0.88
 2020 192    87       0   22320  182071       0  182071  182043    27.8    0.00  2232.0 18205.1    0.00 18205.1 18204.2    0.88
 2020 193    88       0   22320  182064       0  182064  182036    27.8    0.00  2232.0 18204.4    0.00 18204.4 18203.6    0.88
 2020 194    89       0   22319  182059       0  182059  182029    30.3    0.00  2231.9 18203.8    0.00 18203.8 18202.9    0.96
 2020 195    90       0   22319  182053       0  182053  182022    30.3    0.00  2231.9 18203.2    0.00 18203.2 18202.2    0.96
 2020 196    91       0   22318  182046       0  182046  182016    30.3    0.00  2231.8 18202.5    0.00 18202.5 18201.6    0.96
 2020 197    92       0   22318  182040       0  182040  182009    30.3    0.00  2231.8 18201.9    0.00 18201.9 18200.9    0.96
 2020 198    93       0   22318  182033       0  182033  182003    30.3    0.00  2231.7 18201.2    0.00 18201.2 18200.3    0.96
 2020 199    94       0   22317  182027       0  182027  181997    30.3    0.00  2231.7 18200.6    0.00 18200.6 18199.7    0.96
 2020 200    95       0   22317  182021       0  182021  181990    30.2    0.00  2231.7 18200.0    0.00 18200.0 18199.0    0.96
 2020 201    96       0   22316  182013       0  182013  181983    29.9    0.00  2231.6 18199.3    0.00 18199.3 18198.3    0.95
 2020 202    97       0   22316  182006       0  182006  181977    29.8    0.00  2231.5 18198.6    0.00 18198.6 18197.6    0.95
 2020 203    98       0   22315  182002       0  182002  181970    32.2    0.00  2231.5 18198.0    0.00 18198.0 18197.0    1.02
 2020 204    99       0   22315  181998       0  181998  181964    34.6    0.00  2231.5 18197.4    0.00 18197.4 18196.3    1.09
 2020 205   100       0   22314  181995       0  181995  181957    37.0    0.00  2231.4 18196.9    0.00 18196.9 18195.7    1.16
 2020 206   101       0   22314  181991       0  181991  181952    39.5    0.00  2231.4 18196.3    0.00 18196.3 18195.1    1.22
 2020 207   102       0   22313  181987       0  181987  181945    41.9    0.00  2231.3 18195.8    0.00 18195.8 18194.5    1.29
 2020 208   103       0   22313  181984       0  181984  181939    44.4    0.00  2231.3 18195.2    0.00 18195.2 18193.9    1.36
 2020 209   104       0   22311  181974       0  181974  181931    42.9    0.00  2231.1 18194.4    0.00 18194.4 18193.0    1.34
 2020 210   105       0   22310  181964       0  181964  181922    41.5    0.00  2231.0 18193.5    0.00 18193.5 18192.1    1.32
 2020 211   106       0   22309  181954       0  181954  181914    40.2    0.00  2230.8 18192.6    0.00 18192.6 18191.3    1.30
 2020 212   107       0   22307  181945       0  181945  181906    39.1    0.00  2230.7 18191.8    0.00 18191.8 18190.5    1.28
 2020 213   108       0   22306  181937       0  181937  181899    38.2    0.00  2230.5 18191.0    0.00 18191.0 18189.8    1.27
 2020 214   109       0   22305  181929       0  181929  181892    37.4    0.00  2230.4 18190.3    0.00 18190.3 18189.0    1.25
 2020 215   110       0   22303  181921       0  181921  181884    36.8    0.00  2230.3 18189.5    0.00 18189.5 18188.3    1.24
 2020 216   111       0   22302  181914       0  181914  181878    36.3    0.00  2230.2 18188.8    0.00 18188.8 18187.6    1.23
 2020 217   112       0   22301  181906       0  181906  181871    35.7    0.00  2230.1 18188.1    0.00 18188.1 18186.9    1.22
 2020 218   113       0   22300  181899       0  181899  181864    35.2    0.00  2230.0 18187.4    0.00 18187.4 18186.2    1.21
 2020 219   114       0   22300  181892       0  181892  181857    34.9    0.00  2229.9 18186.8    0.00 18186.8 18185.6    1.20
 2020 220   115       0   22299  181885       0  181885  181851    34.4    0.00  2229.8 18186.1    0.00 18186.1 18184.9    1.19
 2020 221   116       0   22298  181878       0  181878  181844    33.9    0.00  2229.7 18185.4    0.00 18185.4 18184.2    1.18
 2020 222   117       0   22297  181870       0  181870  181837    33.6    0.00  2229.6 18184.7    0.00 18184.7 18183.5    1.17
 2020 223   118       0   22296  181863       0  181863  181830    33.3    0.00  2229.5 18184.0    0.00 18184.0 18182.8    1.16
 2020 224   119       0   22295  181859       0  181859  181823    35.6    0.00  2229.5 18183.4    0.00 18183.4 18182.1    1.23
 2020 225   120       0   22295  181855       0  181855  181817    37.9    0.00  2229.4 18182.8    0.00 18182.8 18181.5    1.29
 2020 226   121       0   22294  181850       0  181850  181810    40.2    0.00  2229.4 18182.2    0.00 18182.2 18180.8    1.35
 2020 227   122       0   22294  181846       0  181846  181804    42.6    0.00  2229.3 18181.6    0.00 18181.6 18180.2    1.42
 2020 228   123       0   22293  181840       0  181840  181797    42.5    0.00  2229.3 18181.0    0.00 18181.0 18179.5    1.41
 2020 229   124       0   22293  181834       0  181834  181791    42.4    0.00  2229.2 18180.3    0.00 18180.3 18178.9    1.41
 2020 230   125       0   22293  181827       0  181827  181785    42.2    0.00  2229.2 18179.7    0.00 18179.7 18178.3    1.41
 2020 231   126       0   22292  181822       0  181822  181778    44.2    0.00  2229.1 18179.1    0.00 18179.1 18177.6    1.47
 2020 232   127       0   22291  181817       0  181817  181771    46.2    0.00  2229.0 18178.4    0.00 18178.4 18176.9    1.52
 2020 233   128       0   22290  181812       0  181812  181764    48.3    0.00  2228.9 18177.8    0.00 18177.8 18176.2    1.58
 2020 234   129       0   22289  181808       0  181808  181758    50.5    0.00  2228.9 18177.2    0.00 18177.2 18175.5    1.64
 2020 235   130       0   22289  181804       0  181804  181751    52.7    0.00  2228.8 18176.6    0.00 18176.6 18174.9    1.70
 2020 236   131       0   22288  181800       0  181800  181745    54.9    0.00  2228.7 18176.0    0.00 18176.0 18174.3    1.76
 2020 237   132       0   22288  181794       0  181794  181739    54.8    0.00  2228.7 18175.4    0.00 18175.4 18173.7    1.76
 2020 238   133       0   22287  181786       0  181786  181732    54.2    0.00  2228.6 18174.7    0.00 18174.7 18172.9    1.75
 2020 239   134       0   22286  181780       0  181780  181724    56.1    0.00  2228.5 18174.0    0.00 18174.0 18172.2    1.80
 2020 240   135       0   22285  181775       0  181775  181717    58.1    0.00  2228.4 18173.3    0.00 18173.3 18171.5    1.85
 2020 241   136       0   22284  181770       0  181770  181710    60.1    0.00  2228.3 18172.7    0.00 18172.7 18170.8    1.91
 2020 242   137       0   22283  181762       0  181762  181701    60.8    0.00  2228.2 18171.8    0.00 18171.8 18169.9    1.94
 2020 243   138       0   22281  181754       0  181754  181693    61.4    0.00  2228.0 18171.0    0.00 18171.0 18169.0    1.98
 2020 244   139       0   22280  181747       0  181747  181685    62.0    0.00  2227.9 18170.2    0.00 18170.2 18168.1    2.01
 2020 245   140       0   22279  181738       0  181738  181676    62.0    0.00  2227.7 18169.3    0.00 18169.3 18167.3    2.03
 2020 246   141       0   22277  181730       0  181730  181668    62.2    0.00  2227.6 18168.5    0.00 18168.5 18166.4    2.06
 2020 247   142       0   22276  181723       0  181723  181660    62.6    0.00  2227.5 18167.7    0.00 18167.7 18165.7    2.08
 2020 248   143       0   22275  181716       0  181716  181653    63.1    0.00  2227.3 18167.0    0.00 18167.0 18164.8    2.11
 2020 249   144       0   22274  181709       0  181709  181645    63.7    0.00  2227.2 18166.2    0.00 18166.2 18164.1    2.14
 2020 250   145       0   22272  181702       0  181702  181637    64.4    0.00  2227.1 18165.4    0.00 18165.4 18163.3    2.17
 2020 251   146       0   22271  181694       0  181694  181629    65.0    0.00  2226.9 18164.6    0.00 18164.6 18162.4    2.20
 2020 252   147       0   22270  181686       0  181686  181620    65.3    0.00  2226.8 18163.7    0.00 18163.7 18161.5    2.21
 2020 253   148       0   22268  181676       0  181676  181612    63.4    0.00  2226.7 18162.9    0.00 18162.9 18160.7    2.18
 2020 254   149       0   22267  181667       0  181667  181605    62.0    0.00  2226.5 18162.1    0.00 18162.1 18160.0    2.15
 2020 255   150       0   22267  181660       0  181660  181599    60.8    0.00  2226.5 18161.5    0.00 18161.5 18159.3    2.12
 2020 256   151       0   22266  181656       0  181656  181594    62.0    0.00  2226.4 18161.0    0.00 18161.0 18158.8    2.16
 2020 257   152       0   22265  181652       0  181652  181589    63.2    0.00  2226.3 18160.5    0.00 18160.5 18158.3    2.19
 2020 258   153       0   22265  181647       0  181647  181583    64.2    0.00  2226.3 18159.9    0.00 18159.9 18157.7    2.22
 2020 259   154       0   22264  181641       0  181641  181576    64.9    0.00  2226.2 18159.2    0.00 18159.2 18157.0    2.25
 2020 260   155       0   22262  181634       0  181634  181568    65.4    0.00  2226.0 18158.4    0.00 18158.4 18156.2    2.27
 2020 261   156       0   22261  181625       0  181625  181560    65.5    0.00  2225.9 18157.6    0.00 18157.6 18155.3    2.28
 2020 262   157       0   22260  181617       0  181617  181551    65.8    0.00  2225.8 18156.7    0.00 18156.7 18154.5    2.30
 2020 263   158       0   22259  181609       0  181609  181543    66.2    0.00  2225.7 18155.9    0.00 18155.9 18153.6    2.31
 2020 264   159       0   22258  181602       0  181602  181535    66.7    0.00  2225.6 18155.1    0.00 18155.1 18152.8    2.33
 2020 265   160       0   22257  181594       0  181594  181527    67.2    0.00  2225.4 18154.3    0.00 18154.3 18151.9    2.35
 2020 266   161       0   22256  181586       0  181586  181518    67.4    0.00  2225.3 18153.4    0.00 18153.4 18151.0    2.36
 2020 267   162       0   22254  181577       0  181577  181510    67.5    0.00  2225.2 18152.5    0.00 18152.5 18150.2    2.37
 2020 268   163       0   22253  181568       0  181568  181501    67.7    0.00  2225.1 18151.6    0.00 18151.6 18149.3    2.38
 2020 269   164       0   22252  181560       0  181560  181492    67.9    0.00  2224.9 18150.7    0.00 18150.7 18148.3    2.39
 2020 270   165       0   22251  181550       0  181550  181482    68.1    0.00  2224.8 18149.8    0.00 18149.8 18147.4    2.40
 2020 271   166       0   22249  181541       0  181541  181473    68.4    0.00  2224.6 18148.8    0.00 18148.8 18146.4    2.41
 2020 272   167       0   22248  181531       0  181531  181464    66.8    0.00  2224.5 18147.8    0.00 18147.8 18145.5    2.37
 2020 273   168       0   22247  181521       0  181521  181455    65.5    0.00  2224.4 18146.9    0.00 18146.9 18144.6    2.34
 2020 274   169       0   22246  181511       0  181511  181447    64.4    0.00  2224.3 18146.1    0.00 18146.1 18143.8    2.31
 2020 275   170       0   22245  181503       0  181503  181439    63.5    0.00  2224.2 18145.3    0.00 18145.3 18143.0    2.28
 2020 276   171       0   22244  181495       0  181495  181433    62.8    0.00  2224.1 18144.6    0.00 18144.6 18142.3    2.26
 2020 277   172       0   22243  181488       0  181488  181426    62.1    0.00  2224.0 18143.9    0.00 18143.9 18141.6    2.24
