*SOIL ORGANIC N BALANCE

*DSSAT Cropping System Model Ver. 4.7.5.035 -develop  JUN 11, 2021 16:21:59

*RUN   1        : 20 IRRIG, PETPEN NO KCB.. MZCER047 KSRT2001    1
 MODEL          : MZCER047 - Maize
 EXPERIMENT     : KSRT2001 SB ARM 2020 KS, IRRIGATED & NON-IRRIGATED
 DATA PATH      :
 TREATMENT  1   : 20 IRRIG, PETPEN NO KCB.. MZCER047
  


!                                        INITIAL Year/Doy      FINAL Year/Doy
!                                                2020/106            2020/277
!SOIL N BALANCE                                 -----------kg N/ha-----------

!   Soil Humus N                                 18282.50            18113.12
!   Soil Litter N                                    0.00                5.09
!   N in Surface Residue                             0.00                0.00

!   Added to / Removed from Soil:
!   N in Harvest Residues from Previous Crop         0.00
!   N from Organic Applications                      0.00
!   N from senesced plant matter                     8.45
!   N immobilized                                    0.00
!   N mineralized                                                      172.74

!   Total N balance                              18290.95            18290.95
!   Balance                                                             0.000

!===============================================================================

*DSSAT Cropping System Model Ver. 4.7.5.035 -develop  JUN 11, 2021 16:21:59

*RUN   2        : 20 IRRIG, PETPEN KCB..... MZCER047 KSRT2001    2
 MODEL          : MZCER047 - Maize
 EXPERIMENT     : KSRT2001 SB ARM 2020 KS, IRRIGATED & NON-IRRIGATED
 DATA PATH      :
 TREATMENT  2   : 20 IRRIG, PETPEN KCB..... MZCER047
  


!                                        INITIAL Year/Doy      FINAL Year/Doy
!                                                2020/106            2020/277
!SOIL N BALANCE                                 -----------kg N/ha-----------

!   Soil Humus N                                 18282.50            18112.93
!   Soil Litter N                                    0.00                0.60
!   N in Surface Residue                             0.00                0.00

!   Added to / Removed from Soil:
!   N in Harvest Residues from Previous Crop         0.00
!   N from Organic Applications                      0.00
!   N from senesced plant matter                     1.02
!   N immobilized                                    0.00
!   N mineralized                                                      169.98

!   Total N balance                              18283.52            18283.52
!   Balance                                                             0.002

!===============================================================================

*DSSAT Cropping System Model Ver. 4.7.5.035 -develop  JUN 11, 2021 16:21:59

*RUN   3        : 20 IRRIG, ASCE SHORT..... MZCER047 KSRT2001    3
 MODEL          : MZCER047 - Maize
 EXPERIMENT     : KSRT2001 SB ARM 2020 KS, IRRIGATED & NON-IRRIGATED
 DATA PATH      :
 TREATMENT  3   : 20 IRRIG, ASCE SHORT..... MZCER047
  


!                                        INITIAL Year/Doy      FINAL Year/Doy
!                                                2020/106            2020/277
!SOIL N BALANCE                                 -----------kg N/ha-----------

!   Soil Humus N                                 18282.50            18113.01
!   Soil Litter N                                    0.00                4.96
!   N in Surface Residue                             0.00                0.00

!   Added to / Removed from Soil:
!   N in Harvest Residues from Previous Crop         0.00
!   N from Organic Applications                      0.00
!   N from senesced plant matter                     8.39
!   N immobilized                                    0.00
!   N mineralized                                                      172.92

!   Total N balance                              18290.89            18290.89
!   Balance                                                             0.000
