*SOIL ORGANIC N BALANCE

*DSSAT Cropping System Model Ver. 4.7.5.035 -develop  JUN 14, 2021 09:08:55

*RUN   1        : 20 IRRIG, PETPEN NO KCB.. MZCER047 KSRT2001    1
 MODEL          : MZCER047 - Maize
 EXPERIMENT     : KSRT2001 SB ARM 2020 KS, IRRIGATED
 DATA PATH      :
 TREATMENT  1   : 20 IRRIG, PETPEN NO KCB.. MZCER047
  


!                                        INITIAL Year/Doy      FINAL Year/Doy
!                                                2020/106            2020/277
!SOIL N BALANCE                                 -----------kg N/ha-----------

!   Soil Humus N                                 18282.50            18149.83
!   Soil Litter N                                    0.00                5.23
!   N in Surface Residue                             0.00                0.00

!   Added to / Removed from Soil:
!   N in Harvest Residues from Previous Crop         0.00
!   N from Organic Applications                      0.00
!   N from senesced plant matter                     6.17
!   N immobilized                                    0.00
!   N mineralized                                                      133.61

!   Total N balance                              18288.67            18288.67
!   Balance                                                             0.002

!===============================================================================

*DSSAT Cropping System Model Ver. 4.7.5.035 -develop  JUN 14, 2021 09:08:55

*RUN   2        : 20 IRRIG, PETPEN KCB..... MZCER047 KSRT2001    2
 MODEL          : MZCER047 - Maize
 EXPERIMENT     : KSRT2001 SB ARM 2020 KS, IRRIGATED
 DATA PATH      :
 TREATMENT  2   : 20 IRRIG, PETPEN KCB..... MZCER047
  


!                                        INITIAL Year/Doy      FINAL Year/Doy
!                                                2020/106            2020/277
!SOIL N BALANCE                                 -----------kg N/ha-----------

!   Soil Humus N                                 18282.50            18141.21
!   Soil Litter N                                    0.00                3.87
!   N in Surface Residue                             0.00                0.00

!   Added to / Removed from Soil:
!   N in Harvest Residues from Previous Crop         0.00
!   N from Organic Applications                      0.00
!   N from senesced plant matter                     4.14
!   N immobilized                                    0.00
!   N mineralized                                                      141.56

!   Total N balance                              18286.63            18286.64
!   Balance                                                             0.002

!===============================================================================

*DSSAT Cropping System Model Ver. 4.7.5.035 -develop  JUN 14, 2021 09:08:55

*RUN   3        : 20 IRRIG, ASCE SHORT..... MZCER047 KSRT2001    3
 MODEL          : MZCER047 - Maize
 EXPERIMENT     : KSRT2001 SB ARM 2020 KS, IRRIGATED
 DATA PATH      :
 TREATMENT  3   : 20 IRRIG, ASCE SHORT..... MZCER047
  


!                                        INITIAL Year/Doy      FINAL Year/Doy
!                                                2020/106            2020/277
!SOIL N BALANCE                                 -----------kg N/ha-----------

!   Soil Humus N                                 18282.50            18147.00
!   Soil Litter N                                    0.00                4.00
!   N in Surface Residue                             0.00                0.00

!   Added to / Removed from Soil:
!   N in Harvest Residues from Previous Crop         0.00
!   N from Organic Applications                      0.00
!   N from senesced plant matter                     5.47
!   N immobilized                                    0.00
!   N mineralized                                                      136.97

!   Total N balance                              18287.97            18287.97
!   Balance                                                             0.000
