*SOIL TEMPERATURE OUTPUT FILE (DAILY)

*DSSAT Cropping System Model Ver. 4.7.5.035 -develop  JUN 10, 2021 14:49:00

*RUN   1        : 20 IRRIG, light rate,freq MZCER047 KSRT2001    1
 MODEL          : MZCER047 - Maize
 EXPERIMENT     : KSRT2001 SB ARM 2020 KS, IRRIGATED & NON-IRRIGATED
 DATA PATH      :
 TREATMENT  1   : 20 IRRIG, light rate,freq MZCER047
  
! TAV  =    20.9
! TAMP =    13.4
!               Temperature (oC) by soil depth (cm):
!               Surface     0-5    5-15   15-29   29-43   43-53   53-64  64-132 132-201
@YEAR DOY   DAS    TS0D    TS1D    TS2D    TS3D    TS4D    TS5D    TS6D    TS7D    TS8D    
 2020 130     1    17.4    17.3    17.3    17.1    17.0    16.9    16.9    16.8    16.9
 2020 131     2    17.7    17.6    17.5    17.4    17.3    17.2    17.1    17.0    17.0
 2020 132     3    15.9    15.9    15.9    15.8    15.8    15.8    15.8    15.8    16.2
 2020 133     4    14.0    14.0    14.0    14.0    14.1    14.2    14.2    14.5    15.2
 2020 134     5    14.4    14.4    14.4    14.5    14.5    14.6    14.6    14.8    15.4
 2020 135     6    15.1    15.1    15.1    15.1    15.1    15.1    15.2    15.3    15.8
 2020 136     7    16.5    16.5    16.5    16.4    16.3    16.3    16.3    16.3    16.5
 2020 137     8    19.7    19.6    19.5    19.2    19.0    18.9    18.7    18.3    18.0
 2020 138     9    23.2    23.2    22.9    22.5    22.1    21.8    21.5    20.7    19.8
 2020 139    10    24.8    24.7    24.4    24.0    23.5    23.1    22.8    21.7    20.6
 2020 140    11    25.4    25.3    25.0    24.5    24.0    23.6    23.2    22.2    20.9
 2020 141    12    25.4    25.3    25.0    24.5    24.0    23.6    23.2    22.1    20.9
 2020 142    13    25.7    25.6    25.3    24.8    24.3    23.8    23.5    22.4    21.0
 2020 143    14    25.7    25.5    25.2    24.8    24.3    23.8    23.5    22.4    21.1
 2020 144    15    26.5    26.3    26.0    25.5    25.0    24.5    24.1    23.0    21.5
 2020 145    16    26.2    26.1    25.8    25.3    24.7    24.3    23.9    22.8    21.4
 2020 146    17    24.9    24.8    24.5    24.1    23.6    23.3    22.9    21.9    20.7
 2020 147    18    24.6    24.5    24.3    23.8    23.4    23.0    22.7    21.7    20.6
 2020 148    19    24.2    24.1    23.8    23.4    23.0    22.7    22.4    21.5    20.4
 2020 149    20    23.3    23.2    23.0    22.6    22.2    21.9    21.7    20.9    19.9
 2020 150    21    24.1    24.0    23.7    23.3    22.9    22.6    22.3    21.4    20.3
 2020 151    22    27.2    27.0    26.7    26.2    25.6    25.1    24.7    23.5    21.9
 2020 152    23    29.2    29.0    28.7    28.1    27.4    26.9    26.5    25.0    23.1
 2020 153    24    31.5    31.4    30.9    30.2    29.5    28.9    28.3    26.6    24.3
 2020 154    25    33.5    33.3    32.8    32.0    31.2    30.5    29.9    27.9    25.3
 2020 155    26    34.5    34.3    33.7    32.9    32.0    31.3    30.7    28.6    25.8
 2020 156    27    34.6    34.4    33.9    33.0    32.1    31.4    30.8    28.7    25.9
 2020 157    28    35.4    35.2    34.6    33.7    32.8    32.0    31.4    29.2    26.3
 2020 158    29    35.8    35.6    35.0    34.1    33.2    32.4    31.7    29.5    26.5
 2020 159    30    35.6    35.4    34.8    34.0    33.0    32.2    31.6    29.4    26.5
 2020 160    31    36.2    36.0    35.4    34.5    33.5    32.7    32.1    29.8    26.8
 2020 161    32    33.8    33.6    33.1    32.3    31.5    30.8    30.2    28.2    25.6
 2020 162    33    31.5    31.4    30.9    30.3    29.5    28.9    28.4    26.8    24.5
 2020 163    34    30.8    30.7    30.3    29.6    28.9    28.4    27.9    26.3    24.1
 2020 164    35    30.7    30.6    30.1    29.5    28.8    28.3    27.8    26.2    24.1
 2020 165    36    30.5    30.3    30.0    29.3    28.7    28.1    27.7    26.1    24.0
 2020 166    37    32.9    32.7    32.2    31.5    30.7    30.1    29.6    27.7    25.2
 2020 167    38    34.6    34.5    33.9    33.2    32.3    31.6    31.0    28.9    26.2
 2020 168    39    34.9    34.8    34.2    33.4    32.5    31.8    31.2    29.1    26.3
 2020 169    40    35.1    35.0    34.4    33.6    32.7    32.0    31.4    29.3    26.4
 2020 170    41    34.0    33.8    33.3    32.6    31.7    31.0    30.5    28.5    25.9
 2020 171    42    31.8    31.7    31.3    30.6    29.9    29.3    28.8    27.1    24.8
 2020 172    43    30.9    30.8    30.4    29.8    29.1    28.6    28.1    26.5    24.4
 2020 173    44    30.6    30.5    30.1    29.5    28.9    28.3    27.9    26.3    24.2
 2020 174    45    29.6    29.5    29.1    28.6    28.0    27.5    27.1    25.7    23.7
 2020 175    46    29.4    29.3    28.9    28.4    27.8    27.3    26.9    25.5    23.6
 2020 176    47    31.6    31.4    31.0    30.4    29.7    29.2    28.7    27.0    24.8
 2020 177    48    32.6    32.5    32.0    31.4    30.6    30.0    29.5    27.8    25.3
 2020 178    49    33.4    33.2    32.8    32.1    31.3    30.6    30.1    28.3    25.7
 2020 179    50    34.4    34.2    33.8    33.0    32.2    31.5    30.9    29.0    26.3
 2020 180    51    35.7    35.5    35.0    34.2    33.3    32.6    32.0    29.9    27.0
 2020 181    52    36.5    36.3    35.8    35.0    34.0    33.3    32.7    30.5    27.4
 2020 182    53    36.7    36.5    35.9    35.1    34.2    33.4    32.8    30.6    27.5
 2020 183    54    36.0    35.9    35.4    34.6    33.7    32.9    32.3    30.2    27.2
 2020 184    55    36.0    35.8    35.3    34.5    33.6    32.9    32.3    30.2    27.2
 2020 185    56    35.5    35.4    34.9    34.1    33.2    32.5    31.9    29.9    27.0
 2020 186    57    34.4    34.2    33.8    33.1    32.3    31.6    31.1    29.2    26.5
 2020 187    58    32.9    32.7    32.3    31.7    31.0    30.4    29.9    28.2    25.7
 2020 188    59    32.7    32.5    32.1    31.5    30.8    30.2    29.8    28.1    25.7
 2020 189    60    32.3    32.2    31.8    31.2    30.5    30.0    29.5    27.8    25.5
 2020 190    61    33.0    32.8    32.4    31.8    31.1    30.5    30.0    28.3    25.9
 2020 191    62    32.9    32.8    32.4    31.8    31.1    30.5    30.0    28.3    25.9
 2020 192    63    33.3    33.2    32.8    32.1    31.4    30.8    30.3    28.6    26.1
 2020 193    64    33.8    33.7    33.2    32.6    31.9    31.3    30.7    29.0    26.4
 2020 194    65    33.7    33.6    33.2    32.5    31.8    31.2    30.7    28.9    26.4
 2020 195    66    32.7    32.6    32.2    31.6    30.9    30.4    29.9    28.3    25.9
 2020 196    67    32.3    32.1    31.8    31.2    30.6    30.0    29.6    28.0    25.7
 2020 197    68    31.6    31.5    31.2    30.6    30.0    29.6    29.1    27.6    25.5
 2020 198    69    30.9    30.8    30.5    30.0    29.5    29.0    28.6    27.2    25.1
 2020 199    70    31.1    31.0    30.7    30.2    29.6    29.1    28.7    27.3    25.3
 2020 200    71    31.5    31.4    31.1    30.6    30.0    29.5    29.1    27.7    25.5
 2020 201    72    31.2    31.1    30.8    30.3    29.7    29.3    28.9    27.5    25.4
 2020 202    73    31.7    31.5    31.2    30.7    30.2    29.7    29.3    27.8    25.7
 2020 203    74    31.3    31.2    30.9    30.4    29.9    29.4    29.0    27.6    25.6
 2020 204    75    31.0    30.9    30.6    30.1    29.6    29.2    28.8    27.4    25.4
 2020 205    76    30.6    30.5    30.3    29.8    29.3    28.9    28.5    27.2    25.3
 2020 206    77    31.6    31.5    31.2    30.7    30.2    29.7    29.3    27.9    25.8
 2020 207    78    32.4    32.3    32.0    31.5    30.9    30.4    30.0    28.5    26.3
 2020 208    79    33.4    33.3    33.0    32.4    31.8    31.2    30.8    29.2    26.8
 2020 209    80    32.1    32.0    31.7    31.3    30.7    30.3    29.9    28.5    26.3
 2020 210    81    30.5    30.4    30.2    29.8    29.3    28.9    28.6    27.4    25.5
 2020 211    82    29.8    29.8    29.5    29.2    28.8    28.4    28.1    27.0    25.2
 2020 212    83    28.0    27.9    27.8    27.5    27.2    26.9    26.6    25.7    24.3
 2020 213    84    26.7    26.7    26.6    26.3    26.1    25.9    25.7    24.9    23.7
 2020 214    85    27.5    27.5    27.3    27.1    26.8    26.6    26.3    25.5    24.2
 2020 215    86    27.9    27.9    27.7    27.5    27.2    26.9    26.7    25.8    24.4
 2020 216    87    26.8    26.7    26.6    26.4    26.2    26.0    25.8    25.0    23.8
 2020 217    88    27.1    27.0    26.9    26.7    26.4    26.2    26.0    25.3    24.0
 2020 218    89    27.1    27.0    26.9    26.7    26.4    26.2    26.0    25.3    24.1
 2020 219    90    26.5    26.5    26.4    26.2    26.0    25.8    25.6    24.9    23.8
 2020 220    91    27.4    27.3    27.2    27.0    26.7    26.5    26.3    25.6    24.3
 2020 221    92    29.1    29.0    28.9    28.6    28.2    28.0    27.7    26.8    25.2
 2020 222    93    30.5    30.5    30.3    29.9    29.5    29.2    28.9    27.8    26.0
 2020 223    94    31.3    31.2    31.0    30.6    30.2    29.8    29.5    28.3    26.5
 2020 224    95    32.1    32.0    31.7    31.3    30.9    30.5    30.1    28.9    26.9
 2020 225    96    31.8    31.7    31.5    31.1    30.7    30.3    30.0    28.7    26.8
 2020 226    97    31.4    31.4    31.1    30.8    30.3    30.0    29.7    28.5    26.6
 2020 227    98    30.8    30.7    30.5    30.2    29.8    29.5    29.2    28.1    26.4
 2020 228    99    30.5    30.4    30.2    29.9    29.5    29.2    28.9    27.9    26.2
 2020 229   100    30.3    30.3    30.1    29.8    29.4    29.1    28.9    27.8    26.2
 2020 230   101    30.7    30.6    30.4    30.1    29.7    29.4    29.1    28.1    26.4
 2020 231   102    30.7    30.6    30.4    30.1    29.8    29.4    29.2    28.1    26.4
 2020 232   103    30.5    30.4    30.2    29.9    29.6    29.3    29.0    28.0    26.4
 2020 233   104    30.5    30.5    30.3    30.0    29.6    29.3    29.1    28.1    26.4
 2020 234   105    30.4    30.4    30.2    29.9    29.6    29.3    29.0    28.1    26.4
 2020 235   106    30.6    30.5    30.3    30.0    29.7    29.4    29.1    28.2    26.5
 2020 236   107    30.8    30.7    30.6    30.3    29.9    29.6    29.4    28.3    26.7
 2020 237   108    31.5    31.4    31.2    30.9    30.5    30.2    29.9    28.8    27.1
 2020 238   109    31.9    31.9    31.7    31.3    30.9    30.6    30.3    29.2    27.3
 2020 239   110    32.5    32.5    32.2    31.9    31.5    31.1    30.8    29.6    27.7
 2020 240   111    32.9    32.8    32.6    32.2    31.8    31.4    31.1    29.9    27.9
 2020 241   112    33.2    33.1    32.8    32.5    32.0    31.6    31.3    30.1    28.1
 2020 242   113    31.2    31.2    31.0    30.7    30.4    30.1    29.8    28.8    27.2
 2020 243   114    30.9    30.9    30.7    30.5    30.1    29.9    29.6    28.7    27.1
 2020 244   115    29.2    29.2    29.1    28.9    28.6    28.4    28.3    27.5    26.2
 2020 245   116    27.3    27.3    27.2    27.1    27.0    26.8    26.7    26.2    25.2
 2020 246   117    26.3    26.3    26.3    26.3    26.2    26.1    26.0    25.6    24.8
 2020 247   118    26.7    26.7    26.6    26.6    26.5    26.4    26.3    25.9    25.0
 2020 248   119    26.3    26.3    26.3    26.3    26.2    26.1    26.0    25.6    24.8
 2020 249   120    27.9    27.9    27.8    27.7    27.5    27.4    27.3    26.7    25.7
 2020 250   121    29.9    29.8    29.7    29.5    29.3    29.1    28.9    28.1    26.7
 2020 251   122    30.4    30.4    30.2    30.0    29.7    29.5    29.3    28.5    27.0
 2020 252   123    28.0    27.9    27.9    27.8    27.6    27.5    27.4    26.8    25.8
 2020 253   124    23.1    23.1    23.2    23.3    23.4    23.5    23.5    23.5    23.3
 2020 254   125    18.8    18.9    19.1    19.4    19.7    19.9    20.1    20.6    21.1
 2020 255   126    16.0    16.1    16.4    16.8    17.3    17.6    17.9    18.8    19.7
 2020 256   127    14.9    15.0    15.3    15.8    16.3    16.7    17.0    18.0    19.1
 2020 257   128    17.5    17.6    17.9    18.2    18.6    18.9    19.2    19.9    20.5
 2020 258   129    21.6    21.6    21.8    22.0    22.1    22.3    22.4    22.6    22.7
 2020 259   130    24.6    24.6    24.7    24.8    24.8    24.8    24.8    24.7    24.3
 2020 260   131    25.7    25.7    25.7    25.7    25.7    25.7    25.7    25.5    24.9
 2020 261   132    25.3    25.3    25.4    25.4    25.4    25.4    25.4    25.2    24.7
 2020 262   133    25.0    25.0    25.0    25.1    25.1    25.1    25.1    25.0    24.6
 2020 263   134    25.1    25.1    25.1    25.2    25.2    25.2    25.2    25.1    24.6
 2020 264   135    25.5    25.5    25.6    25.6    25.6    25.6    25.6    25.4    24.9
 2020 265   136    25.9    25.9    25.9    25.9    25.9    25.9    25.9    25.7    25.1
 2020 266   137    26.2    26.2    26.3    26.3    26.3    26.2    26.2    26.0    25.3
 2020 267   138    26.6    26.6    26.6    26.6    26.6    26.6    26.5    26.2    25.5
 2020 268   139    27.7    27.7    27.7    27.7    27.6    27.5    27.4    27.0    26.1
 2020 269   140    28.8    28.8    28.7    28.6    28.5    28.4    28.2    27.7    26.7
 2020 270   141    29.6    29.6    29.5    29.4    29.2    29.0    28.9    28.3    27.2
 2020 271   142    28.6    28.6    28.5    28.5    28.3    28.2    28.1    27.6    26.7
 2020 272   143    26.9    26.9    26.9    26.9    26.9    26.8    26.8    26.5    25.8
 2020 273   144    25.7    25.7    25.7    25.8    25.8    25.8    25.8    25.7    25.2
 2020 274   145    23.7    23.8    23.9    24.0    24.1    24.2    24.3    24.4    24.2
 2020 275   146    21.3    21.3    21.5    21.8    22.0    22.2    22.3    22.7    23.0
 2020 276   147    21.5    21.6    21.8    22.0    22.2    22.4    22.5    22.9    23.1
 2020 277   148    21.7    21.8    22.0    22.2    22.4    22.6    22.7    23.1    23.2
