*Soil Inorganic Nitrogen daily output file

*DSSAT Cropping System Model Ver. 4.7.5.035 -develop  JUN 11, 2021 16:21:59

*RUN   1        : 20 IRRIG, PETPEN NO KCB.. MZCER047 KSRT2001    1
 MODEL          : MZCER047 - Maize
 EXPERIMENT     : KSRT2001 SB ARM 2020 KS, IRRIGATED & NON-IRRIGATED
 DATA PATH      :
 TREATMENT  1   : 20 IRRIG, PETPEN NO KCB.. MZCER047
  
!                                                                                                                                      NO3 (ppm) at soil dep. (cm):                                    NH4 (ppm) at soil dep. (cm):                                    Total Inorganic N @dep(ppm):
!                                                                                                                                       0-5    5-15   15-29   29-43   43-53   53-64  64-132 132-201     0-5    5-15   15-29   29-43   43-53   53-64  64-132 132-201     0-5    5-15   15-29   29-43   43-53   53-64  64-132 132-201
@YEAR DOY   DAS  NAPC  NI#M    NIAD    NITD    NHTD   NURTD    NMNC    NITC    NDNC    NIMC    AMLC   NNMNC    NUCM    NLCC    TDNC    NI1D    NI2D    NI3D    NI4D    NI5D    NI6D    NI7D    NI8D    NH1D    NH2D    NH3D    NH4D    NH5D    NH6D    NH7D    NH8D    NT1D    NT2D    NT3D    NT4D    NT5D    NT6D    NT7D    NT8D    
 2020 105     0     0     0    22.1    19.6     2.5     0.0    0.00    0.00    0.00    0.00    0.00    0.00    0.00    0.00    0.00    0.80     0.8     0.8    0.80    0.80    0.80    0.80    0.80    0.10    0.10    0.10    0.10    0.10    0.10    0.10    0.10    0.90    0.90    0.90    0.90    0.90    0.90    0.90    0.90
 2020 106     1     0     0    22.6    20.2     2.4     0.0    0.55    0.64    0.00    0.00    0.00    0.55    0.00    0.00    0.00    0.83     0.8     0.8    0.83    0.83    0.83    0.83    0.83    0.14    0.14    0.12    0.12    0.10    0.10    0.09    0.09    0.96    0.96    0.95    0.95    0.92    0.92    0.91    0.91
 2020 107     2     0     0    23.2    20.9     2.3     0.0    1.11    1.26    0.00    0.00    0.00    1.11    0.00    0.00    0.00    0.88     0.9     0.9    0.86    0.85    0.85    0.85    0.85    0.16    0.16    0.14    0.14    0.09    0.09    0.08    0.08    1.04    1.02    0.99    0.99    0.94    0.94    0.93    0.93
 2020 108     3     0     0    23.7    21.5     2.2     0.0    1.66    1.86    0.00    0.00    0.00    1.66    0.00    0.00    0.00    0.93     0.9     0.9    0.89    0.87    0.87    0.87    0.87    0.18    0.18    0.15    0.15    0.09    0.09    0.07    0.07    1.11    1.08    1.04    1.04    0.96    0.96    0.94    0.94
 2020 109     4     0     0    24.2    22.0     2.2     0.0    2.18    2.42    0.00    0.00    0.00    2.18    0.00    0.00    0.00    0.99     0.9     0.9    0.93    0.89    0.89    0.89    0.89    0.20    0.19    0.15    0.15    0.09    0.09    0.07    0.07    1.19    1.13    1.08    1.08    0.98    0.98    0.95    0.96
 2020 110     5     0     0    24.8    22.6     2.2     0.0    2.73    3.00    0.00    0.00    0.00    2.73    0.00    0.00    0.00    1.06     1.0     1.0    0.97    0.92    0.92    0.90    0.91    0.21    0.21    0.16    0.16    0.09    0.09    0.06    0.06    1.26    1.18    1.12    1.13    1.00    1.00    0.97    0.97
 2020 111     6     0     0    25.4    23.2     2.2     0.0    3.32    3.60    0.00    0.00    0.00    3.32    0.00    0.00    0.00    1.13     1.0     1.0    1.01    0.94    0.94    0.92    0.92    0.22    0.22    0.17    0.17    0.08    0.08    0.06    0.06    1.35    1.25    1.17    1.17    1.02    1.02    0.98    0.98
 2020 112     7     0     0    26.0    23.8     2.2     0.0    3.95    4.23    0.00    0.00    0.00    3.95    0.00    0.00    0.00    1.21     1.1     1.1    1.06    0.96    0.96    0.94    0.94    0.22    0.22    0.17    0.17    0.08    0.08    0.06    0.06    1.44    1.31    1.23    1.23    1.05    1.05    1.00    1.00
 2020 113     8     0     0    26.6    24.5     2.2     0.0    4.59    4.88    0.00    0.00    0.00    4.59    0.00    0.00    0.00    1.30     1.2     1.1    1.11    0.99    0.99    0.95    0.96    0.23    0.23    0.17    0.17    0.08    0.08    0.06    0.06    1.53    1.38    1.28    1.28    1.07    1.07    1.01    1.01
 2020 114     9     0     0    27.3    25.2     2.2     0.0    5.28    5.57    0.00    0.00    0.00    5.28    0.00    0.00    0.00    1.40     1.2     1.2    1.16    1.01    1.01    0.97    0.98    0.23    0.23    0.18    0.18    0.08    0.08    0.06    0.06    1.63    1.45    1.34    1.34    1.10    1.10    1.03    1.03
 2020 115    10     0     0    28.0    25.9     2.2     0.0    6.00    6.30    0.00    0.00    0.00    6.00    0.00    0.00    0.00    1.50     1.3     1.2    1.22    1.04    1.04    0.99    0.99    0.23    0.23    0.18    0.18    0.08    0.08    0.05    0.05    1.74    1.53    1.40    1.40    1.12    1.12    1.04    1.05
 2020 116    11     0     0    28.7    26.6     2.1     0.0    6.69    7.00    0.00    0.00    0.00    6.69    0.00    0.00    0.00    1.60     1.4     1.3    1.28    1.07    1.07    1.01    1.01    0.24    0.24    0.18    0.18    0.08    0.08    0.05    0.05    1.84    1.61    1.46    1.46    1.15    1.15    1.06    1.06
 2020 117    12     0     0    29.4    27.3     2.1     0.0    7.36    7.67    0.00    0.00    0.00    7.36    0.00    0.00    0.00    1.70     1.4     1.3    1.34    1.09    1.09    1.02    1.03    0.24    0.24    0.18    0.18    0.08    0.08    0.05    0.05    1.94    1.68    1.52    1.52    1.18    1.18    1.08    1.08
 2020 118    13     0     0    30.1    28.0     2.1     0.0    8.10    8.41    0.00    0.00    0.00    8.10    0.00    0.00    0.00    1.82     1.5     1.4    1.40    1.12    1.12    1.04    1.04    0.24    0.24    0.18    0.18    0.08    0.08    0.05    0.05    2.05    1.76    1.58    1.58    1.20    1.20    1.09    1.10
 2020 119    14     0     0    30.9    28.8     2.1     0.0    8.90    9.23    0.00    0.00    0.00    8.90    0.00    0.00    0.00    1.94     1.6     1.5    1.47    1.15    1.15    1.06    1.06    0.24    0.23    0.18    0.18    0.08    0.08    0.05    0.05    2.18    1.84    1.65    1.65    1.24    1.23    1.11    1.11
 2020 120    15     0     0    31.8    29.6     2.1     0.0    9.73   10.06    0.00    0.00    0.00    9.73    0.00    0.00    0.00    2.06     1.7     1.5    1.54    1.19    1.18    1.08    1.08    0.25    0.23    0.18    0.18    0.08    0.08    0.05    0.05    2.31    1.94    1.72    1.72    1.27    1.27    1.13    1.13
 2020 121    16     0     0    32.6    30.5     2.1     0.0   10.60   10.95    0.00    0.00    0.00   10.60    0.00    0.00    0.00    2.19     1.8     1.6    1.62    1.22    1.22    1.10    1.10    0.26    0.23    0.17    0.18    0.08    0.08    0.05    0.05    2.44    2.03    1.80    1.80    1.30    1.30    1.15    1.15
 2020 122    17     0     0    33.6    31.5     2.1     0.0   11.56   11.94    0.00    0.00    0.00   11.56    0.00    0.00    0.00    2.33     1.9     1.7    1.71    1.26    1.26    1.12    1.12    0.27    0.22    0.17    0.17    0.08    0.08    0.05    0.05    2.60    2.14    1.89    1.88    1.34    1.33    1.17    1.17
 2020 123    18     0     0    34.6    32.6     2.0     0.0   12.57   13.00    0.00    0.00    0.00   12.57    0.00    0.00    0.00    2.48     2.0     1.8    1.80    1.30    1.30    1.15    1.14    0.27    0.21    0.16    0.17    0.08    0.08    0.05    0.05    2.76    2.26    1.98    1.97    1.38    1.37    1.20    1.19
 2020 124    19     0     0    35.6    33.6     2.0     0.0   13.56   13.99    0.00    0.00    0.00   13.56    0.00    0.00    0.00    2.63     2.2     1.9    1.89    1.34    1.33    1.17    1.16    0.29    0.21    0.16    0.16    0.07    0.08    0.05    0.05    2.92    2.37    2.06    2.06    1.41    1.41    1.22    1.21
 2020 125    20     0     0    36.6    34.5     2.0     0.0   14.54   14.96    0.00    0.00    0.00   14.54    0.00    0.00    0.00    2.77     2.3     2.0    1.98    1.38    1.37    1.19    1.18    0.30    0.21    0.16    0.16    0.07    0.08    0.05    0.05    3.08    2.48    2.15    2.14    1.45    1.45    1.24    1.23
 2020 126    21     0     0    37.6    35.5     2.0     0.0   15.53   15.96    0.00    0.00    0.00   15.53    0.00    0.00    0.00    2.92     2.4     2.1    2.07    1.42    1.41    1.21    1.20    0.32    0.21    0.16    0.16    0.07    0.08    0.05    0.05    3.24    2.59    2.24    2.23    1.49    1.49    1.26    1.25
 2020 127    22     0     0    38.5    36.5     2.0     0.0   16.49   16.89    0.00    0.00    0.00   16.49    0.00    0.00    0.00    3.07     2.5     2.2    2.15    1.45    1.45    1.24    1.22    0.33    0.21    0.16    0.16    0.08    0.08    0.05    0.05    3.40    2.69    2.33    2.31    1.53    1.52    1.29    1.28
 2020 128    23     0     0    39.4    37.3     2.1     0.0   17.37   17.73    0.00    0.00    0.00   17.37    0.00    0.00    0.00    3.20     2.6     2.2    2.22    1.49    1.48    1.26    1.24    0.35    0.22    0.17    0.17    0.08    0.08    0.05    0.05    3.55    2.78    2.40    2.39    1.56    1.55    1.31    1.29
 2020 129    24     0     0    40.3    38.1     2.1     0.0   18.26   18.59    0.00    0.00    0.00   18.26    0.00    0.00    0.00    3.33     2.7     2.3    2.29    1.52    1.51    1.28    1.26    0.37    0.22    0.17    0.17    0.08    0.08    0.05    0.05    3.71    2.88    2.48    2.46    1.60    1.59    1.33    1.31
 2020 130    25     0     0    41.1    38.9     2.2     0.0   19.08   19.37    0.00    0.00    0.00   19.08    0.00    0.00    0.00    3.46     2.7     2.4    2.36    1.55    1.54    1.29    1.28    0.39    0.22    0.17    0.17    0.08    0.08    0.05    0.05    3.85    2.96    2.55    2.53    1.63    1.62    1.35    1.33
 2020 131    26     0     0    41.9    39.7     2.2     0.0   19.87   20.13    0.00    0.00    0.00   19.87    0.00    0.00    0.00    3.58     2.8     2.4    2.43    1.58    1.57    1.31    1.30    0.41    0.23    0.17    0.17    0.08    0.08    0.05    0.05    3.99    3.04    2.62    2.60    1.66    1.65    1.36    1.35
 2020 132    27     0     0    42.6    40.4     2.2     0.0   20.60   20.84    0.00    0.00    0.00   20.60    0.00    0.00    0.00    3.70     2.9     2.5    2.49    1.61    1.60    1.33    1.31    0.43    0.23    0.18    0.18    0.08    0.08    0.05    0.05    4.13    3.11    2.68    2.66    1.69    1.68    1.38    1.37
 2020 133    28     0     0    43.2    41.0     2.2     0.0   21.24   21.49    0.00    0.00    0.00   21.24    0.00    0.00    0.00    3.87     2.9     2.6    2.54    1.63    1.62    1.34    1.33    0.39    0.23    0.18    0.18    0.08    0.08    0.05    0.05    4.25    3.17    2.73    2.72    1.71    1.70    1.40    1.38
 2020 134    29     0     0    43.7    41.6     2.2     0.0   21.73   22.00    0.00    0.00    0.00   21.73    0.00    0.00    0.00    3.99     3.0     2.6    2.58    1.65    1.64    1.36    1.34    0.36    0.23    0.18    0.18    0.08    0.08    0.05    0.05    4.36    3.20    2.77    2.76    1.73    1.72    1.41    1.39
 2020 135    30     0     0    44.2    42.1     2.2     0.0   22.22   22.51    0.00    0.00    0.00   22.22    0.00    0.00    0.00    4.12     3.0     2.6    2.62    1.67    1.66    1.37    1.35    0.34    0.23    0.18    0.18    0.08    0.08    0.05    0.05    4.46    3.24    2.81    2.79    1.75    1.74    1.42    1.41
 2020 136    31     0     0    44.7    42.6     2.2     0.0   22.74   23.03    0.00    0.00    0.00   22.74    0.00    0.00    0.00    4.23     3.0     2.7    2.66    1.68    1.68    1.38    1.37    0.33    0.23    0.18    0.18    0.08    0.08    0.05    0.05    4.57    3.28    2.85    2.84    1.76    1.76    1.43    1.42
 2020 137    32     0     0    45.3    43.2     2.2     0.0   23.32   23.61    0.00    0.00    0.00   23.32    0.00    0.00    0.00    4.36     3.1     2.7    2.70    1.71    1.70    1.40    1.38    0.32    0.23    0.18    0.18    0.08    0.08    0.05    0.05    4.68    3.32    2.90    2.88    1.79    1.78    1.45    1.43
 2020 138    33     0     0    46.0    43.9     2.2     0.0   24.01   24.31    0.00    0.00    0.00   24.01    0.00    0.00    0.00    4.53     3.2     2.8    2.76    1.73    1.72    1.41    1.40    0.29    0.24    0.18    0.18    0.08    0.08    0.05    0.05    4.82    3.39    2.95    2.94    1.81    1.80    1.46    1.45
 2020 139    34     0     0    46.8    44.7     2.1     0.0   24.84   25.17    0.00    0.00    0.00   24.84    0.00    0.00    0.00    4.71     3.2     2.8    2.83    1.76    1.75    1.43    1.42    0.26    0.23    0.18    0.18    0.08    0.08    0.05    0.05    4.97    3.47    3.02    3.01    1.84    1.83    1.48    1.47
 2020 140    35     0     0    47.7    45.6     2.1     0.0   25.73   26.11    0.00    0.00    0.00   25.73    0.00    0.00    0.00    4.90     3.3     2.9    2.91    1.80    1.79    1.45    1.44    0.24    0.23    0.17    0.17    0.08    0.08    0.05    0.05    5.14    3.56    3.10    3.09    1.88    1.87    1.50    1.49
 2020 141    36     0     0    48.6    46.6     2.0     0.0   26.65   27.06    0.00    0.00    0.00   26.65    0.00    0.00    0.00    5.08     3.4     3.0    3.00    1.84    1.82    1.47    1.46    0.23    0.22    0.17    0.17    0.08    0.08    0.05    0.05    5.31    3.65    3.18    3.17    1.91    1.90    1.52    1.51
 2020 142    37     0     0    49.6    47.5     2.0     0.0   27.57   27.99    0.00    0.00    0.00   27.57    0.00    0.00    0.00    1.84     5.1     3.2    3.08    1.87    1.86    1.49    1.47    0.22    0.22    0.17    0.17    0.08    0.08    0.05    0.05    2.06    5.32    3.37    3.25    1.95    1.94    1.55    1.53
 2020 143    38     0     0    50.5    48.3     2.2     0.0   28.50   28.80    0.00    0.00    0.00   28.50    0.00    0.00    0.00    1.93     5.1     3.3    3.16    1.91    1.90    1.52    1.49    0.29    0.29    0.17    0.17    0.08    0.08    0.05    0.05    2.22    5.39    3.47    3.33    1.98    1.97    1.57    1.55
 2020 144    39     0     0    51.4    49.3     2.1     0.0   29.43   29.81    0.00    0.00    0.00   29.43    0.00    0.00    0.00    3.26     5.1     3.4    3.09    1.93    1.90    1.52    1.50    0.25    0.25    0.17    0.17    0.08    0.08    0.05    0.05    3.51    5.39    3.52    3.26    2.01    1.98    1.57    1.55
 2020 145    40     0     0    52.4    50.4     2.0     0.0   30.40   30.82    0.00    0.00    0.00   30.40    0.00    0.00    0.00    3.48     5.2     3.4    3.18    1.97    1.94    1.55    1.52    0.23    0.23    0.16    0.17    0.08    0.08    0.05    0.05    3.71    5.48    3.60    3.34    2.05    2.01    1.60    1.57
 2020 146    41     0     0    53.3    51.3     2.0     0.0   31.35   31.80    0.00    0.00    0.00   31.35    0.00    0.00    0.00    3.69     5.3     3.5    3.26    2.01    1.97    1.57    1.54    0.22    0.22    0.16    0.17    0.08    0.08    0.05    0.05    3.91    5.56    3.69    3.43    2.08    2.05    1.62    1.59
 2020 147    42     0     0    54.2    52.2     2.0     0.0   32.25   32.69    0.00    0.00    0.00   32.25    0.00    0.00    0.00    3.89     5.4     3.6    3.34    2.04    2.01    1.59    1.56    0.22    0.22    0.17    0.17    0.08    0.08    0.05    0.05    4.11    5.64    3.77    3.50    2.12    2.08    1.64    1.61
 2020 148    43     0     0    55.1    53.1     2.0     0.0   33.15   33.57    0.00    0.00    0.00   33.15    0.00    0.00    0.00    4.08     5.5     3.7    3.41    2.07    2.04    1.61    1.58    0.22    0.22    0.17    0.17    0.08    0.08    0.05    0.05    4.30    5.72    3.84    3.58    2.15    2.12    1.66    1.63
 2020 149    44     0     0    56.0    54.0     2.0     0.0   34.02   34.44    0.00    0.00    0.00   34.02    0.00    0.00    0.00    4.27     5.6     3.7    3.48    2.11    2.07    1.63    1.60    0.22    0.22    0.17    0.17    0.08    0.08    0.05    0.05    4.49    5.79    3.92    3.66    2.18    2.15    1.68    1.65
 2020 150    45     0     0    56.8    54.8     2.1     0.0   34.86   35.26    0.00    0.00    0.00   34.86    0.00    0.00    0.00    4.46     5.6     3.8    3.55    2.14    2.10    1.65    1.62    0.22    0.22    0.17    0.17    0.08    0.08    0.05    0.05    4.68    5.86    3.99    3.73    2.22    2.18    1.70    1.67
 2020 151    46     0     0    57.7    55.7     2.1     0.0   35.73   36.13    0.00    0.00    0.00   35.73    0.00    0.00    0.00    4.66     5.7     3.9    3.63    2.17    2.14    1.67    1.64    0.22    0.22    0.17    0.17    0.08    0.08    0.05    0.05    4.88    5.94    4.06    3.80    2.25    2.21    1.72    1.69
 2020 152    47     0     0    58.7    56.7     2.0     0.0   36.73   37.18    0.00    0.00    0.00   36.73    0.00    0.00    0.00    4.88     5.8     4.0    3.72    2.21    2.18    1.69    1.66    0.21    0.21    0.16    0.17    0.08    0.08    0.05    0.05    5.09    6.02    4.15    3.89    2.29    2.25    1.74    1.71
 2020 153    48     0     0    59.8    57.8     1.9     0.0   37.79   38.32    0.00    0.00    0.00   37.79    0.00    0.00    0.00    5.12     5.9     4.1    3.82    2.26    2.22    1.72    1.68    0.20    0.20    0.16    0.16    0.07    0.07    0.05    0.05    5.32    6.12    4.24    3.98    2.33    2.29    1.77    1.73
 2020 154    49     0     0    60.9    59.1     1.8     0.0   38.96   39.58    0.00    0.00    0.00   38.96    0.00    0.00    0.00    5.38     6.0     4.2    3.93    2.31    2.27    1.75    1.71    0.18    0.19    0.15    0.15    0.07    0.07    0.05    0.05    5.56    6.24    4.34    4.08    2.37    2.34    1.79    1.76
 2020 155    50     0     0    62.2    60.4     1.7     0.0   40.19   40.90    0.00    0.00    0.00   40.19    0.00    0.00    0.00    5.64     6.2     4.3    4.05    2.36    2.32    1.78    1.73    0.17    0.17    0.14    0.14    0.07    0.07    0.05    0.05    5.82    6.36    4.45    4.19    2.42    2.38    1.82    1.78
 2020 156    51     0     0    63.4    61.7     1.7     0.0   41.47   42.22    0.00    0.00    0.00   41.47    0.00    0.00    0.00    5.90     6.3     4.4    4.16    2.41    2.37    1.81    1.76    0.17    0.17    0.13    0.14    0.06    0.06    0.04    0.05    6.08    6.48    4.57    4.30    2.47    2.43    1.85    1.81
 2020 157    52     0     0    64.7    63.0     1.7     0.0   42.75   43.51    0.00    0.00    0.00   42.75    0.00    0.00    0.00    6.16     6.4     4.6    4.28    2.46    2.42    1.84    1.78    0.18    0.17    0.13    0.13    0.06    0.06    0.04    0.05    6.34    6.61    4.68    4.41    2.52    2.48    1.88    1.83
 2020 158    53     0     0    66.0    64.3     1.7     0.0   44.05   44.84    0.00    0.00    0.00   44.05    0.00    0.00    0.00    6.43     6.6     4.7    4.40    2.51    2.47    1.87    1.81    0.19    0.17    0.13    0.13    0.06    0.06    0.04    0.05    6.61    6.74    4.80    4.53    2.57    2.53    1.91    1.86
 2020 159    54     0     0    67.3    65.7     1.7     0.0   45.38   46.17    0.00    0.00    0.00   45.38    0.00    0.00    0.00    6.69     6.7     4.8    4.51    2.57    2.52    1.90    1.84    0.19    0.17    0.12    0.13    0.06    0.06    0.04    0.05    6.89    6.87    4.92    4.64    2.63    2.58    1.94    1.88
 2020 160    55     0     0    68.6    67.0     1.7     0.0   46.69   47.48    0.00    0.00    0.00   46.69    0.00    0.00    0.00    6.95     6.8     4.9    4.63    2.62    2.57    1.93    1.86    0.21    0.17    0.13    0.13    0.06    0.06    0.04    0.05    7.16    7.00    5.04    4.76    2.68    2.63    1.97    1.91
 2020 161    56     0     0    70.0    68.3     1.7     0.0   48.03   48.82    0.00    0.00    0.00   48.03    0.00    0.00    0.00    7.22     7.0     5.0    4.75    2.67    2.62    1.96    1.89    0.21    0.17    0.13    0.13    0.06    0.06    0.04    0.05    7.44    7.13    5.15    4.88    2.73    2.68    2.00    1.94
 2020 162    57     0     0    71.2    69.5     1.7     0.0   49.28   50.05    0.00    0.00    0.00   49.28    0.00    0.00    0.00    7.54     7.1     5.1    4.85    2.72    2.67    1.98    1.91    0.17    0.17    0.13    0.14    0.06    0.06    0.04    0.05    7.71    7.25    5.27    4.99    2.78    2.73    2.03    1.96
 2020 163    58     0     0    72.3    70.5     1.7     0.0   50.45   51.15    0.00    0.00    0.00   50.45    0.11    0.00    0.00    7.73     7.1     5.2    4.94    2.76    2.71    2.01    1.94    0.18    0.18    0.14    0.14    0.07    0.07    0.04    0.05    7.91    7.30    5.36    5.09    2.82    2.77    2.05    1.98
 2020 164    59     0     0    73.0    71.3     1.7     0.0   51.46   52.25    0.00    0.00    0.00   51.46    0.41    0.00    0.00    7.82     7.1     5.3    5.04    2.80    2.75    2.03    1.96    0.16    0.18    0.08    0.15    0.07    0.07    0.05    0.05    7.98    7.25    5.38    5.19    2.87    2.82    2.08    2.01
 2020 165    60     0     0    73.4    71.8     1.6     0.0   52.46   53.28    0.00    0.00    0.00   52.46    0.98    0.00    0.00    7.76     6.9     5.3    5.14    2.84    2.79    2.06    1.98    0.14    0.18    0.06    0.15    0.07    0.07    0.05    0.05    7.90    7.08    5.38    5.28    2.91    2.86    2.11    2.03
 2020 166    61     0     0    73.6    72.0     1.6     0.0   53.43   54.27    0.00    0.00    0.00   53.43    1.77    0.00    0.00    7.65     6.6     5.3    5.23    2.89    2.83    2.08    2.00    0.13    0.18    0.06    0.15    0.07    0.07    0.05    0.05    7.77    6.79    5.36    5.38    2.95    2.90    2.13    2.05
 2020 167    62     0     0    73.9    72.4     1.5     0.0   54.46   55.38    0.00    0.00    0.00   54.46    2.49    0.00    0.00    7.67     6.3     5.3    5.34    2.94    2.88    2.11    2.03    0.10    0.15    0.05    0.14    0.07    0.07    0.05    0.05    7.77    6.49    5.33    5.49    3.00    2.95    2.16    2.08
 2020 168    63     0     0    73.8    72.3     1.4     0.0   55.53   56.53    0.00    0.00    0.00   55.53    3.68    0.00    0.00    7.76     5.7     5.2    5.46    2.99    2.93    2.14    2.06    0.09    0.13    0.05    0.13    0.06    0.06    0.04    0.05    7.85    5.87    5.23    5.60    3.05    3.00    2.19    2.10
 2020 169    64     0     0    73.4    72.0     1.4     0.0   56.57   57.62    0.00    0.00    0.00   56.57    5.06    0.00    0.00    1.06     3.6     4.7    8.59    4.44    2.98    2.17    2.08    0.08    0.11    0.05    0.13    0.06    0.06    0.04    0.05    1.14    3.68    4.74    8.72    4.50    3.05    2.22    2.13
 2020 170    65     0     0    73.5    71.5     2.0     0.0   57.88   58.37    0.00    0.00    0.00   57.88    6.33    0.00    0.00    1.01     3.2     4.3    8.08    5.25    3.03    2.20    2.11    0.21    0.23    0.16    0.22    0.06    0.06    0.04    0.05    1.22    3.39    4.47    8.30    5.31    3.10    2.25    2.16
 2020 171    66     0     0    72.6    70.6     2.1     0.0   59.15   59.55    0.00    0.00    0.00   59.15    8.46    0.00    0.00    1.76     3.0     4.2    7.44    5.18    3.01    2.21    2.12    0.17    0.17    0.23    0.27    0.06    0.06    0.04    0.05    1.92    3.16    4.45    7.71    5.24    3.07    2.26    2.16
 2020 172    67     0     0    72.3    70.5     1.8     0.0   60.34   60.97    0.00    0.00    0.00   60.34    9.93    0.00    0.00    2.10     2.9     4.3    7.18    5.14    3.00    2.23    2.13    0.18    0.18    0.16    0.18    0.06    0.07    0.04    0.05    2.28    3.06    4.42    7.36    5.21    3.07    2.27    2.18
 2020 173    68     0     0    69.8    68.0     1.8     0.0   61.50   62.15    0.00    0.00    0.00   61.50   13.59    0.00    0.00    1.80     2.3     3.8    6.34    5.19    3.05    2.25    2.15    0.18    0.18    0.15    0.16    0.07    0.07    0.05    0.05    1.99    2.53    3.94    6.50    5.25    3.11    2.30    2.20
 2020 174    69     0     0    68.9    67.1     1.8     0.0   62.64   63.29    0.00    0.00    0.00   62.64   15.67    0.00    0.00    1.71     2.1     3.6    5.89    5.23    3.09    2.28    2.18    0.18    0.19    0.15    0.15    0.07    0.07    0.05    0.05    1.90    2.32    3.71    6.04    5.29    3.16    2.33    2.23
 2020 175    70     0     0    67.1    65.3     1.8     0.0   63.73   64.37    0.00    0.00    0.00   63.73   18.57    0.00    0.00    1.51     1.8     3.2    5.23    5.19    3.13    2.30    2.20    0.17    0.19    0.15    0.15    0.07    0.07    0.05    0.05    1.68    1.99    3.36    5.38    5.26    3.20    2.35    2.25
 2020 176    71     0     0    65.6    63.8     1.8     0.0   64.80   65.44    0.00    0.00    0.00   64.80   21.09    0.00    0.00    1.36     1.6     2.9    4.72    5.00    3.17    2.33    2.22    0.15    0.19    0.15    0.15    0.07    0.07    0.05    0.05    1.51    1.76    3.08    4.87    5.07    3.24    2.38    2.27
 2020 177    72     0     0    63.1    61.4     1.7     0.0   65.93   66.66    0.00    0.00    0.00   65.93   24.76    0.00    0.00    1.17     1.2     2.5    3.98    4.55    3.22    2.36    2.25    0.12    0.17    0.14    0.15    0.07    0.07    0.05    0.05    1.30    1.41    2.66    4.12    4.62    3.28    2.40    2.30
 2020 178    73     0     0    60.2    58.6     1.7     0.0   67.08   67.88    0.00    0.00    0.00   67.08   28.74    0.00    0.00    1.07     0.9     2.0    3.17    3.97    3.26    2.39    2.27    0.10    0.15    0.14    0.14    0.07    0.07    0.04    0.05    1.17    1.05    2.19    3.31    4.03    3.33    2.43    2.32
 2020 179    74     0     0    56.7    55.1     1.6     0.0   68.23   69.09    0.00    0.00    0.00   68.23   33.43    0.00    0.00    1.06     0.5     1.5    2.19    3.18    3.31    2.42    2.30    0.09    0.13    0.13    0.14    0.06    0.06    0.04    0.05    1.15    0.64    1.59    2.33    3.24    3.38    2.46    2.35
 2020 180    75     0     0    54.0    52.5     1.5     0.0   69.37   70.32    0.00    0.00    0.00   69.37   37.28    0.00    0.00    1.15     0.4     1.1    1.53    2.54    2.93    2.45    2.33    0.08    0.11    0.12    0.12    0.06    0.06    0.04    0.05    1.23    0.49    1.18    1.66    2.60    3.00    2.49    2.37
 2020 181    76     0     0    52.0    50.6     1.4     0.0   70.50   71.54    0.00    0.00    0.00   70.50   40.41    0.00    0.00    1.24     0.4     0.8    1.10    2.04    2.38    2.48    2.35    0.07    0.11    0.11    0.11    0.06    0.05    0.04    0.05    1.31    0.47    0.91    1.21    2.10    2.42    2.52    2.40
 2020 182    77     0     0    50.6    49.3     1.3     0.0   71.59   72.71    0.00    0.00    0.00   71.59   42.87    0.00    0.00    1.31     0.4     0.6    0.82    1.65    1.90    2.51    2.38    0.06    0.09    0.10    0.09    0.06    0.04    0.04    0.05    1.38    0.45    0.72    0.91    1.71    1.94    2.55    2.43
 2020 183    78     0     0    49.7    48.4     1.3     0.0   72.64   73.81    0.00    0.00    0.00   72.64   44.81    0.00    0.00    1.38     0.3     0.5    0.62    1.35    1.53    2.54    2.41    0.06    0.09    0.09    0.08    0.06    0.04    0.04    0.05    1.44    0.43    0.60    0.71    1.40    1.57    2.58    2.46
 2020 184    79     0     0    49.2    47.9     1.3     0.0   73.64   74.84    0.00    0.00    0.00   73.64   46.37    0.00    0.00    1.44     0.3     0.4    0.48    1.11    1.23    2.57    2.44    0.05    0.08    0.08    0.08    0.06    0.04    0.04    0.05    1.50    0.42    0.50    0.56    1.16    1.27    2.61    2.48
 2020 185    80     0     0    48.8    47.5     1.2     0.0   74.59   75.82    0.00    0.00    0.00   74.59   47.73    0.00    0.00    0.18     0.7     0.3    0.55    1.03    1.04    2.59    2.46    0.05    0.08    0.08    0.07    0.05    0.04    0.04    0.05    0.23    0.82    0.35    0.62    1.08    1.08    2.63    2.51
 2020 186    81     0     0    48.5    46.6     1.8     0.0   75.90   76.50    0.00    0.00    0.00   75.90   49.32    0.00    0.00    0.20     0.4     0.3    0.39    0.81    0.94    2.59    2.49    0.20    0.22    0.18    0.18    0.06    0.03    0.04    0.05    0.40    0.59    0.45    0.56    0.87    0.98    2.63    2.54
 2020 187    82     0     0    48.4    46.7     1.6     0.0   77.18   78.00    0.00    0.00    0.00   77.18   50.69    0.00    0.00    0.42     0.5     0.4    0.41    0.69    0.81    2.55    2.51    0.16    0.17    0.13    0.14    0.06    0.04    0.04    0.05    0.58    0.63    0.55    0.55    0.75    0.85    2.59    2.56
 2020 188    83     0     0    47.7    46.0     1.7     0.0   78.41   79.19    0.00    0.00    0.00   78.41   52.62    0.00    0.00    0.40     0.4     0.4    0.38    0.59    0.67    2.50    2.54    0.17    0.18    0.14    0.14    0.06    0.04    0.04    0.05    0.57    0.57    0.52    0.52    0.65    0.71    2.54    2.58
 2020 189    84     0     0    47.2    45.5     1.7     0.0   79.62   80.40    0.00    0.00    0.00   79.62   54.35    0.00    0.00    0.41     0.4     0.4    0.36    0.51    0.55    2.45    2.56    0.17    0.18    0.14    0.14    0.06    0.04    0.04    0.05    0.58    0.58    0.50    0.50    0.57    0.59    2.49    2.61
 2020 190    85     0     0    46.6    45.0     1.7     0.0   80.81   81.59    0.00    0.00    0.00   80.81   56.05    0.00    0.00    0.40     0.4     0.4    0.36    0.44    0.47    2.38    2.59    0.17    0.18    0.14    0.14    0.06    0.04    0.04    0.05    0.58    0.58    0.50    0.50    0.51    0.51    2.43    2.63
 2020 191    86     0     0    46.2    44.5     1.6     0.0   82.02   82.83    0.00    0.00    0.00   82.02   57.72    0.00    0.00    0.41     0.4     0.4    0.36    0.40    0.41    2.32    2.61    0.15    0.18    0.14    0.14    0.06    0.03    0.04    0.05    0.56    0.58    0.50    0.50    0.46    0.45    2.36    2.66
 2020 192    87     0     0    45.7    44.1     1.6     0.0   83.20   84.03    0.00    0.00    0.00   83.20   59.40    0.00    0.00    0.39     0.4     0.4    0.36    0.36    0.37    2.25    2.64    0.13    0.18    0.14    0.14    0.06    0.03    0.04    0.05    0.52    0.58    0.50    0.50    0.42    0.40    2.29    2.69
 2020 193    88     0     0    45.2    43.7     1.6     0.0   84.38   85.25    0.00    0.00    0.00   84.38   61.02    0.00    0.00    0.37     0.4     0.4    0.36    0.33    0.33    2.18    2.67    0.11    0.17    0.13    0.13    0.06    0.03    0.04    0.05    0.49    0.58    0.50    0.50    0.39    0.37    2.22    2.71
 2020 194    89     0     0    44.8    43.3     1.5     0.0   85.52   86.46    0.00    0.00    0.00   85.52   62.60    0.00    0.00    0.37     0.4     0.4    0.36    0.31    0.31    2.12    2.69    0.10    0.16    0.12    0.12    0.06    0.03    0.04    0.05    0.47    0.56    0.49    0.49    0.36    0.34    2.16    2.74
 2020 195    90     0     0    44.4    42.9     1.5     0.0   86.61   87.60    0.00    0.00    0.00   86.61   64.09    0.00    0.00    0.41     0.4     0.4    0.36    0.29    0.29    2.06    2.72    0.09    0.15    0.11    0.12    0.05    0.03    0.04    0.05    0.50    0.54    0.47    0.47    0.35    0.32    2.10    2.77
 2020 196    91     0     0    44.0    42.6     1.4     0.0   87.63   88.64    0.00    0.00    0.00   87.63   65.46    0.00    0.00    0.49     0.4     0.3    0.34    0.29    0.27    2.00    2.74    0.09    0.14    0.11    0.11    0.05    0.03    0.04    0.05    0.58    0.52    0.45    0.46    0.34    0.30    2.04    2.79
 2020 197    92     0     0    43.6    42.2     1.4     0.0   88.61   89.64    0.00    0.00    0.00   88.61   66.85    0.00    0.00    0.37     0.4     0.3    0.34    0.29    0.27    1.94    2.77    0.11    0.14    0.11    0.11    0.05    0.03    0.04    0.05    0.47    0.50    0.44    0.45    0.34    0.30    1.98    2.82
 2020 198    93     0     0    43.3    41.9     1.4     0.0   89.55   90.59    0.00    0.00    0.00   89.55   68.12    0.00    0.00    0.35     0.4     0.3    0.33    0.28    0.27    1.88    2.79    0.11    0.13    0.10    0.11    0.05    0.03    0.04    0.05    0.45    0.49    0.43    0.44    0.33    0.30    1.92    2.84
 2020 199    94     0     0    43.0    41.6     1.4     0.0   90.44   91.50    0.00    0.00    0.00   90.44   69.31    0.00    0.00    0.12     0.2     0.3    0.37    0.38    0.39    1.82    2.82    0.10    0.13    0.10    0.10    0.04    0.03    0.04    0.05    0.22    0.36    0.39    0.47    0.43    0.42    1.86    2.87
 2020 200    95     0     0    43.0    41.0     1.9     0.0   91.58   92.09    0.00    0.00    0.00   91.58   70.45    0.00    0.00    0.11     0.2     0.3    0.28    0.31    0.36    1.77    2.84    0.22    0.24    0.18    0.19    0.07    0.05    0.04    0.05    0.33    0.48    0.46    0.46    0.38    0.41    1.81    2.89
 2020 201    96     0     0    43.3    40.9     2.4     0.0   92.75   92.85    0.00    0.00    0.00   92.75   71.34    0.00    0.00    0.17     0.3     0.3    0.29    0.27    0.34    1.72    2.87    0.31    0.32    0.25    0.25    0.09    0.06    0.04    0.05    0.48    0.62    0.54    0.54    0.36    0.40    1.76    2.91
 2020 202    97     0     0    43.5    40.9     2.6     0.0   93.91   93.77    0.00    0.00    0.00   93.91   72.26    0.00    0.00    0.29     0.4     0.3    0.31    0.28    0.32    1.67    2.89    0.35    0.36    0.30    0.30    0.10    0.06    0.04    0.05    0.64    0.72    0.61    0.61    0.38    0.38    1.71    2.94
 2020 203    98     0     0    43.6    41.7     1.9     0.0   95.10   95.67    0.00    0.00    0.00   95.10   73.34    0.00    0.00    0.55     0.5     0.5    0.48    0.32    0.32    1.63    2.91    0.21    0.21    0.17    0.18    0.07    0.06    0.04    0.05    0.76    0.76    0.66    0.66    0.39    0.38    1.67    2.96
 2020 204    99     0     0    42.9    41.1     1.7     0.0   96.27   96.98    0.00    0.00    0.00   96.27   75.23    0.00    0.00    0.42     0.4     0.4    0.44    0.30    0.30    1.58    2.94    0.19    0.19    0.15    0.15    0.07    0.06    0.04    0.05    0.61    0.61    0.59    0.59    0.37    0.36    1.62    2.98
 2020 205   100     0     0    42.5    40.8     1.7     0.0   97.43   98.16    0.00    0.00    0.00   97.43   76.76    0.00    0.00    0.40     0.4     0.4    0.39    0.30    0.29    1.54    2.96    0.18    0.19    0.14    0.15    0.07    0.06    0.04    0.05    0.58    0.58    0.54    0.54    0.36    0.36    1.58    3.01
 2020 206   101     0     0    42.2    40.5     1.7     0.0   98.57   99.30    0.00    0.00    0.00   98.57   78.17    0.00    0.00    0.40     0.4     0.4    0.36    0.30    0.29    1.49    2.99    0.18    0.19    0.14    0.15    0.07    0.07    0.04    0.05    0.57    0.58    0.50    0.50    0.36    0.36    1.53    3.04
 2020 207   102     0     0    42.1    40.4     1.7     0.0   99.73  100.51    0.00    0.00    0.00   99.73   79.46    0.00    0.00    0.40     0.4     0.4    0.36    0.30    0.30    1.45    3.01    0.16    0.18    0.14    0.14    0.06    0.06    0.04    0.05    0.56    0.58    0.50    0.50    0.36    0.36    1.49    3.06
 2020 208   103     0     0    42.0    40.4     1.6     0.0  100.91  101.74    0.00    0.00    0.00  100.91   80.75    0.00    0.00    0.22     0.4     0.4    0.41    0.33    0.31    1.42    3.04    0.13    0.18    0.14    0.14    0.06    0.06    0.04    0.05    0.35    0.54    0.53    0.55    0.39    0.37    1.45    3.09
 2020 209   104     0     0    42.0    39.9     2.1     0.0  102.15  102.50    0.00    0.00    0.00  102.15   81.97    0.00    0.00    0.26     0.3     0.3    0.31    0.30    0.31    1.38    3.07    0.25    0.28    0.22    0.22    0.08    0.06    0.04    0.05    0.50    0.58    0.52    0.53    0.38    0.38    1.42    3.11
 2020 210   105     0     0    42.3    39.9     2.4     0.0  103.34  103.36    0.00    0.00    0.00  103.34   82.86    0.00    0.00    0.32     0.3     0.3    0.30    0.28    0.31    1.35    3.09    0.33    0.35    0.28    0.28    0.09    0.06    0.04    0.05    0.65    0.68    0.58    0.58    0.37    0.37    1.38    3.14
 2020 211   106     0     0    42.5    39.9     2.6     0.0  104.48  104.30    0.00    0.00    0.00  104.48   83.78    0.00    0.00    0.31     0.4     0.3    0.32    0.29    0.31    1.31    3.12    0.37    0.38    0.31    0.32    0.09    0.07    0.04    0.05    0.68    0.74    0.64    0.64    0.39    0.37    1.35    3.16
 2020 212   107     0     0    42.6    39.8     2.8     0.0  105.59  105.22    0.00    0.00    0.00  105.59   84.81    0.00    0.00    0.33     0.3     0.3    0.33    0.29    0.30    1.28    3.14    0.42    0.42    0.34    0.34    0.10    0.07    0.04    0.05    0.76    0.76    0.67    0.67    0.39    0.37    1.32    3.19
 2020 213   108     0     0    42.6    40.2     2.5     0.0  106.63  106.61    0.00    0.00    0.00  106.63   85.81    0.00    0.00    0.37     0.4     0.5    0.46    0.31    0.30    1.24    3.16    0.44    0.44    0.22    0.23    0.08    0.07    0.04    0.05    0.81    0.80    0.69    0.69    0.39    0.37    1.28    3.21
 2020 214   109     0     0    42.3    40.2     2.1     0.0  107.62  107.97    0.00    0.00    0.00  107.62   87.14    0.00    0.00    0.52     0.5     0.4    0.42    0.29    0.31    1.21    3.18    0.30    0.30    0.19    0.19    0.08    0.07    0.04    0.05    0.83    0.81    0.61    0.61    0.37    0.38    1.25    3.23
 2020 215   110     0     0    41.8    39.8     1.9     0.0  108.64  109.17    0.00    0.00    0.00  108.64   88.70    0.00    0.00    0.44     0.4     0.4    0.38    0.29    0.29    1.18    3.20    0.24    0.24    0.17    0.17    0.07    0.07    0.04    0.05    0.68    0.68    0.56    0.56    0.37    0.36    1.22    3.25
 2020 216   111     0     0    41.5    39.6     1.8     0.0  109.68  110.29    0.00    0.00    0.00  109.68   90.03    0.00    0.00    0.36     0.4     0.4    0.35    0.29    0.29    1.15    3.22    0.22    0.22    0.16    0.16    0.07    0.07    0.04    0.05    0.58    0.63    0.52    0.52    0.37    0.36    1.19    3.27
 2020 217   112     0     0    41.3    39.3     2.0     0.0  110.67  111.14    0.00    0.00    0.00  110.67   91.19    0.00    0.00    0.28     0.3     0.3    0.34    0.29    0.29    1.12    3.25    0.29    0.29    0.16    0.16    0.07    0.07    0.04    0.05    0.57    0.59    0.51    0.50    0.36    0.36    1.16    3.30
 2020 218   113     0     0    41.4    39.3     2.1     0.0  111.67  112.04    0.00    0.00    0.00  111.67   92.08    0.00    0.00    0.31     0.3     0.3    0.34    0.29    0.30    1.09    3.27    0.36    0.34    0.16    0.16    0.07    0.07    0.04    0.05    0.67    0.66    0.50    0.50    0.36    0.37    1.13    3.32
 2020 219   114     0     0    41.4    39.5     2.0     0.0  112.67  113.12    0.00    0.00    0.00  112.67   93.03    0.00    0.00    0.27     0.5     0.4    0.36    0.29    0.32    1.06    3.28    0.39    0.26    0.16    0.16    0.07    0.07    0.04    0.05    0.67    0.71    0.52    0.52    0.36    0.39    1.10    3.33
 2020 220   115     0     0    41.3    39.0     2.2     0.0  113.65  113.86    0.00    0.00    0.00  113.65   94.17    0.00    0.00    0.32     0.3     0.3    0.34    0.30    0.30    1.04    3.31    0.45    0.34    0.22    0.16    0.07    0.07    0.04    0.05    0.77    0.62    0.49    0.50    0.38    0.37    1.07    3.35
 2020 221   116     0     0    41.5    39.4     2.1     0.0  114.66  114.99    0.00    0.00    0.00  114.66   94.95    0.00    0.00    0.54     0.3     0.4    0.34    0.29    0.30    1.01    3.33    0.30    0.38    0.18    0.16    0.07    0.07    0.04    0.05    0.84    0.71    0.57    0.50    0.36    0.37    1.05    3.38
 2020 222   117     0     0    41.4    39.6     1.8     0.0  115.73  116.33    0.00    0.00    0.00  115.73   96.09    0.00    0.00    0.48     0.5     0.4    0.35    0.30    0.33    0.99    3.34    0.23    0.25    0.16    0.15    0.07    0.07    0.03    0.05    0.70    0.76    0.53    0.51    0.37    0.40    1.03    3.39
 2020 223   118     0     0    41.2    39.5     1.7     0.0  116.85  117.59    0.00    0.00    0.00  116.85   97.44    0.00    0.00    0.43     0.4     0.4    0.36    0.30    0.30    0.97    3.37    0.20    0.20    0.15    0.15    0.07    0.07    0.03    0.05    0.63    0.64    0.52    0.51    0.37    0.37    1.01    3.42
 2020 224   119     0     0    41.1    39.5     1.6     0.0  118.00  118.80    0.00    0.00    0.00  118.00   98.65    0.00    0.00    0.41     0.4     0.4    0.36    0.30    0.30    0.95    3.40    0.18    0.19    0.14    0.14    0.07    0.06    0.03    0.05    0.59    0.60    0.51    0.51    0.37    0.36    0.98    3.44
 2020 225   120     0     0    41.2    39.6     1.6     0.0  119.16  120.02    0.00    0.00    0.00  119.16   99.80    0.00    0.00    0.41     0.4     0.4    0.36    0.30    0.30    0.93    3.42    0.15    0.18    0.14    0.14    0.07    0.06    0.03    0.05    0.56    0.59    0.51    0.51    0.37    0.36    0.96    3.47
 2020 226   121     0     0    41.2    39.6     1.6     0.0  120.30  121.18    0.00    0.00    0.00  120.30  100.93    0.00    0.00    0.39     0.4     0.4    0.36    0.30    0.30    0.91    3.45    0.14    0.18    0.14    0.14    0.07    0.06    0.03    0.05    0.52    0.58    0.50    0.50    0.36    0.36    0.94    3.50
 2020 227   122     0     0    41.2    39.6     1.6     0.0  121.42  122.30    0.00    0.00    0.00  121.42  102.02    0.00    0.00    0.37     0.4     0.4    0.36    0.30    0.29    0.89    3.48    0.12    0.18    0.14    0.14    0.07    0.06    0.03    0.05    0.49    0.58    0.50    0.50    0.36    0.35    0.92    3.52
 2020 228   123     0     0    41.2    39.6     1.6     0.0  122.50  123.38    0.00    0.00    0.00  122.50  103.07    0.00    0.00    0.36     0.4     0.4    0.35    0.30    0.29    0.87    3.50    0.11    0.19    0.14    0.14    0.07    0.06    0.03    0.05    0.47    0.58    0.50    0.50    0.36    0.35    0.90    3.55
 2020 229   124     0     0    41.3    39.7     1.6     0.0  123.57  124.44    0.00    0.00    0.00  123.57  104.04    0.00    0.00    0.40     0.4     0.4    0.35    0.30    0.29    0.86    3.53    0.10    0.19    0.14    0.15    0.07    0.06    0.03    0.05    0.51    0.58    0.50    0.50    0.36    0.35    0.89    3.57
 2020 230   125     0     0    41.3    39.8     1.6     0.0  124.63  125.50    0.00    0.00    0.00  124.63  105.08    0.00    0.00    0.33     0.4     0.4    0.35    0.30    0.29    0.84    3.55    0.12    0.19    0.15    0.15    0.07    0.06    0.03    0.05    0.45    0.58    0.50    0.50    0.36    0.35    0.87    3.60
 2020 231   126     0     0    41.4    39.9     1.6     0.0  125.68  126.58    0.00    0.00    0.00  125.68  106.06    0.00    0.00    0.35     0.4     0.4    0.36    0.30    0.29    0.82    3.58    0.11    0.18    0.14    0.14    0.06    0.05    0.03    0.05    0.46    0.57    0.50    0.50    0.36    0.34    0.85    3.63
 2020 232   127     0     0    41.5    40.0     1.5     0.0  126.71  127.64    0.00    0.00    0.00  126.71  107.01    0.00    0.00    0.39     0.4     0.4    0.35    0.30    0.29    0.81    3.61    0.10    0.17    0.14    0.14    0.06    0.05    0.03    0.05    0.50    0.56    0.49    0.49    0.36    0.34    0.83    3.65
 2020 233   128     0     0    41.6    40.1     1.5     0.0  127.70  128.66    0.00    0.00    0.00  127.70  107.91    0.00    0.00    0.48     0.4     0.4    0.35    0.29    0.29    0.79    3.63    0.09    0.17    0.13    0.14    0.06    0.05    0.03    0.05    0.57    0.55    0.49    0.48    0.35    0.34    0.82    3.68
 2020 234   129     0     0    41.7    40.2     1.5     0.0  128.68  129.67    0.00    0.00    0.00  128.68  108.78    0.00    0.00    0.13     0.3     0.3    0.38    0.34    0.40    0.79    3.66    0.08    0.16    0.13    0.13    0.06    0.05    0.03    0.05    0.21    0.51    0.44    0.51    0.40    0.45    0.82    3.70
 2020 235   130     0     0    41.9    39.9     2.0     0.0  129.81  130.23    0.00    0.00    0.00  129.81  109.66    0.00    0.00    0.15     0.3     0.3    0.29    0.27    0.31    0.79    3.68    0.20    0.27    0.21    0.21    0.09    0.08    0.03    0.05    0.35    0.55    0.48    0.50    0.35    0.39    0.82    3.73
 2020 236   131     0     0    42.6    40.3     2.3     0.0  130.97  131.10    0.00    0.00    0.00  130.97  110.16    0.00    0.00    0.33     0.3     0.3    0.30    0.28    0.31    0.78    3.70    0.19    0.33    0.27    0.27    0.10    0.09    0.03    0.05    0.52    0.66    0.57    0.57    0.38    0.40    0.81    3.74
 2020 237   132     0     0    43.0    41.2     1.8     0.0  132.16  132.77    0.00    0.00    0.00  132.16  110.89    0.00    0.00    0.43     0.5     0.5    0.45    0.32    0.35    0.78    3.71    0.19    0.22    0.17    0.18    0.08    0.08    0.03    0.05    0.61    0.72    0.63    0.63    0.40    0.42    0.81    3.75
 2020 238   133     0     0    42.8    41.1     1.7     0.0  133.36  134.12    0.00    0.00    0.00  133.36  112.31    0.00    0.00    0.41     0.4     0.4    0.43    0.31    0.33    0.77    3.74    0.18    0.19    0.15    0.15    0.07    0.07    0.03    0.05    0.59    0.62    0.58    0.58    0.38    0.40    0.80    3.78
 2020 239   134     0     0    42.8    41.1     1.6     0.0  134.59  135.40    0.00    0.00    0.00  134.59  113.58    0.00    0.00    0.41     0.4     0.4    0.40    0.30    0.31    0.76    3.76    0.17    0.18    0.14    0.14    0.07    0.07    0.03    0.05    0.58    0.59    0.54    0.54    0.37    0.38    0.79    3.81
 2020 240   135     0     0    42.8    41.2     1.6     0.0  135.82  136.67    0.00    0.00    0.00  135.82  114.76    0.00    0.00    0.41     0.4     0.4    0.37    0.30    0.30    0.75    3.79    0.15    0.18    0.14    0.14    0.07    0.07    0.03    0.04    0.56    0.59    0.52    0.52    0.37    0.37    0.78    3.84
 2020 241   136     0     0    42.9    41.4     1.6     0.0  137.06  137.94    0.00    0.00    0.00  137.06  115.89    0.00    0.00    0.22     0.4     0.4    0.40    0.33    0.32    0.74    3.82    0.13    0.18    0.14    0.14    0.07    0.07    0.03    0.04    0.35    0.55    0.53    0.54    0.40    0.39    0.78    3.86
 2020 242   137     0     0    43.2    41.1     2.1     0.0  138.33  138.66    0.00    0.00    0.00  138.33  116.88    0.00    0.00    0.26     0.3     0.3    0.31    0.29    0.33    0.75    3.83    0.26    0.29    0.23    0.23    0.09    0.08    0.03    0.04    0.51    0.58    0.53    0.53    0.38    0.41    0.78    3.88
 2020 243   138     0     0    43.8    41.2     2.5     0.0  139.54  139.46    0.00    0.00    0.00  139.54  117.54    0.00    0.00    0.31     0.3     0.3    0.29    0.28    0.30    0.75    3.86    0.35    0.36    0.29    0.29    0.10    0.10    0.03    0.04    0.66    0.68    0.58    0.58    0.38    0.39    0.78    3.90
 2020 244   139     0     0    44.3    41.7     2.6     0.0  140.76  140.58    0.00    0.00    0.00  140.76  118.17    0.00    0.00    0.55     0.4     0.3    0.33    0.30    0.31    0.74    3.88    0.22    0.39    0.32    0.33    0.10    0.10    0.04    0.04    0.77    0.76    0.65    0.65    0.40    0.41    0.77    3.92
 2020 245   140     0     0    44.5    42.5     2.0     0.0  141.91  142.32    0.00    0.00    0.00  141.91  119.15    0.00    0.00    0.43     0.5     0.5    0.47    0.32    0.34    0.74    3.89    0.20    0.26    0.21    0.21    0.08    0.08    0.04    0.05    0.63    0.78    0.68    0.68    0.40    0.42    0.77    3.94
 2020 246   141     0     0    44.1    42.2     1.9     0.0  142.98  143.51    0.00    0.00    0.00  142.98  120.60    0.00    0.00    0.38     0.4     0.4    0.43    0.30    0.31    0.73    3.91    0.21    0.23    0.18    0.18    0.08    0.08    0.04    0.05    0.59    0.63    0.61    0.61    0.38    0.39    0.76    3.96
 2020 247   142     0     0    44.0    42.1     1.9     0.0  144.02  144.57    0.00    0.00    0.00  144.02  121.78    0.00    0.00    0.37     0.4     0.4    0.38    0.29    0.29    0.72    3.94    0.21    0.22    0.17    0.17    0.08    0.08    0.04    0.05    0.59    0.60    0.55    0.55    0.37    0.37    0.75    3.98
 2020 248   143     0     0    44.0    42.1     1.9     0.0  145.07  145.64    0.00    0.00    0.00  145.07  122.82    0.00    0.00    0.38     0.4     0.3    0.35    0.30    0.30    0.71    3.96    0.20    0.22    0.17    0.17    0.08    0.08    0.04    0.05    0.58    0.60    0.52    0.52    0.37    0.37    0.74    4.01
 2020 249   144     0     0    44.1    42.2     1.9     0.0  146.09  146.68    0.00    0.00    0.00  146.09  123.76    0.00    0.00    0.37     0.4     0.3    0.35    0.29    0.29    0.70    3.99    0.18    0.22    0.17    0.17    0.08    0.08    0.04    0.05    0.55    0.59    0.51    0.51    0.37    0.37    0.74    4.03
 2020 250   145     0     0    44.2    42.4     1.8     0.0  147.16  147.80    0.00    0.00    0.00  147.16  124.66    0.00    0.00    0.37     0.4     0.4    0.35    0.30    0.30    0.69    4.01    0.16    0.21    0.16    0.16    0.08    0.08    0.04    0.05    0.53    0.60    0.52    0.52    0.38    0.38    0.73    4.06
 2020 251   146     0     0    44.4    42.7     1.7     0.0  148.30  149.02    0.00    0.00    0.00  148.30  125.62    0.00    0.00    0.37     0.4     0.4    0.36    0.30    0.30    0.68    4.04    0.13    0.20    0.15    0.16    0.07    0.08    0.04    0.05    0.50    0.60    0.52    0.52    0.38    0.38    0.72    4.08
 2020 252   147     0     0    44.6    42.9     1.7     0.0  149.46  150.23    0.00    0.00    0.00  149.46  126.62    0.00    0.00    0.39     0.4     0.4    0.36    0.30    0.30    0.68    4.07    0.11    0.19    0.15    0.15    0.07    0.07    0.04    0.05    0.51    0.59    0.51    0.52    0.38    0.38    0.72    4.11
 2020 253   148     0     0    44.6    42.9     1.8     0.0  150.56  151.25    0.00    0.00    0.00  150.56  127.66    0.00    0.00    0.21     0.4     0.4    0.36    0.30    0.30    0.67    4.09    0.17    0.20    0.16    0.16    0.08    0.08    0.04    0.05    0.38    0.57    0.53    0.52    0.37    0.37    0.71    4.14
 2020 254   149     0     0    44.7    42.5     2.1     0.0  151.48  151.78    0.00    0.00    0.00  151.48  128.54    0.00    0.00    0.22     0.3     0.3    0.28    0.29    0.29    0.66    4.11    0.25    0.28    0.22    0.21    0.08    0.08    0.04    0.05    0.48    0.55    0.49    0.49    0.37    0.37    0.70    4.16
 2020 255   150     0     0    45.0    42.6     2.4     0.0  152.23  152.27    0.00    0.00    0.00  152.23  128.99    0.00    0.00    0.26     0.3     0.3    0.27    0.28    0.30    0.65    4.13    0.31    0.33    0.26    0.26    0.08    0.08    0.04    0.05    0.56    0.61    0.53    0.53    0.36    0.38    0.69    4.18
 2020 256   151     0     0    45.2    42.7     2.5     0.0  152.87  152.82    0.00    0.00    0.00  152.87  129.43    0.00    0.00    0.31     0.3     0.3    0.32    0.27    0.30    0.64    4.13    0.34    0.36    0.29    0.24    0.09    0.09    0.04    0.05    0.65    0.64    0.56    0.56    0.36    0.38    0.68    4.18
 2020 257   152     0     0    45.2    42.8     2.4     0.0  153.47  153.52    0.00    0.00    0.00  153.47  129.99    0.00    0.00    0.36     0.3     0.3    0.31    0.27    0.30    0.64    4.13    0.31    0.33    0.26    0.22    0.09    0.09    0.04    0.05    0.68    0.67    0.59    0.54    0.36    0.39    0.68    4.18
 2020 258   153     0     0    45.2    42.9     2.3     0.0  154.18  154.31    0.00    0.00    0.00  154.18  130.72    0.00    0.00    0.35     0.3     0.3    0.32    0.28    0.28    0.63    4.15    0.29    0.31    0.24    0.21    0.09    0.09    0.04    0.05    0.64    0.65    0.57    0.54    0.37    0.37    0.67    4.20
 2020 259   154     0     0    45.3    43.1     2.2     0.0  155.04  155.29    0.00    0.00    0.00  155.04  131.46    0.00    0.00    0.37     0.4     0.3    0.34    0.29    0.29    0.62    4.17    0.27    0.28    0.22    0.20    0.09    0.09    0.04    0.05    0.64    0.65    0.57    0.54    0.38    0.38    0.66    4.22
 2020 260   155     0     0    45.4    43.4     2.1     0.0  156.01  156.40    0.00    0.00    0.00  156.01  132.32    0.00    0.00    0.39     0.4     0.4    0.35    0.30    0.30    0.61    4.19    0.24    0.25    0.19    0.19    0.09    0.09    0.04    0.05    0.63    0.64    0.56    0.54    0.38    0.38    0.65    4.24
 2020 261   156     0     0    45.5    43.5     2.0     0.0  157.02  157.51    0.00    0.00    0.00  157.02  133.27    0.00    0.00    0.38     0.4     0.4    0.35    0.30    0.30    0.61    4.22    0.20    0.24    0.18    0.18    0.08    0.08    0.04    0.05    0.59    0.62    0.54    0.53    0.38    0.38    0.64    4.27
 2020 262   157     0     0    45.5    43.6     1.9     0.0  158.00  158.54    0.00    0.00    0.00  158.00  134.21    0.00    0.00    0.36     0.4     0.3    0.35    0.29    0.30    0.60    4.24    0.18    0.23    0.18    0.17    0.08    0.08    0.04    0.05    0.54    0.60    0.52    0.52    0.38    0.38    0.64    4.29
 2020 263   158     0     0    45.6    43.7     1.9     0.0  158.98  159.53    0.00    0.00    0.00  158.98  135.08    0.00    0.00    0.35     0.4     0.3    0.34    0.29    0.29    0.59    4.27    0.16    0.23    0.17    0.17    0.08    0.08    0.04    0.05    0.51    0.59    0.52    0.52    0.38    0.38    0.63    4.32
 2020 264   159     0     0    45.8    43.9     1.9     0.0  159.95  160.52    0.00    0.00    0.00  159.95  135.91    0.00    0.00    0.35     0.4     0.3    0.34    0.29    0.29    0.59    4.29    0.14    0.23    0.17    0.17    0.08    0.08    0.04    0.05    0.49    0.59    0.52    0.51    0.38    0.38    0.63    4.34
 2020 265   160     0     0    45.9    44.1     1.9     0.0  160.93  161.53    0.00    0.00    0.00  160.93  136.69    0.00    0.00    0.40     0.4     0.3    0.34    0.30    0.30    0.58    4.32    0.13    0.22    0.17    0.17    0.08    0.08    0.04    0.05    0.53    0.59    0.52    0.52    0.38    0.38    0.62    4.36
 2020 266   161     0     0    46.2    44.3     1.8     0.0  161.92  162.54    0.00    0.00    0.00  161.92  137.48    0.00    0.00    0.48     0.4     0.3    0.35    0.30    0.30    0.58    4.34    0.11    0.22    0.17    0.17    0.08    0.08    0.04    0.05    0.59    0.59    0.52    0.52    0.38    0.38    0.62    4.39
 2020 267   162     0     0    46.4    44.6     1.8     0.0  162.92  163.56    0.00    0.00    0.00  162.92  138.27    0.00    0.00    0.55     0.4     0.3    0.35    0.30    0.30    0.57    4.37    0.10    0.22    0.17    0.17    0.08    0.08    0.04    0.05    0.64    0.59    0.52    0.52    0.38    0.38    0.61    4.41
 2020 268   163     0     0    46.6    44.8     1.8     0.0  163.93  164.59    0.00    0.00    0.00  163.93  139.07    0.00    0.00    0.61     0.4     0.3    0.35    0.30    0.30    0.57    4.39    0.09    0.22    0.17    0.17    0.08    0.08    0.04    0.05    0.69    0.59    0.52    0.52    0.38    0.38    0.61    4.44
 2020 269   164     0     0    46.8    45.1     1.8     0.0  164.99  165.68    0.00    0.00    0.00  164.99  139.88    0.00    0.00    0.66     0.4     0.4    0.36    0.30    0.30    0.57    4.42    0.08    0.21    0.16    0.16    0.08    0.08    0.04    0.05    0.74    0.60    0.52    0.52    0.38    0.38    0.60    4.46
 2020 270   165     0     0    47.0    45.3     1.7     0.0  166.07  166.81    0.00    0.00    0.00  166.07  140.73    0.00    0.00    0.71     0.4     0.4    0.36    0.30    0.30    0.57    4.44    0.07    0.21    0.16    0.16    0.08    0.08    0.04    0.05    0.79    0.60    0.52    0.52    0.38    0.38    0.60    4.49
 2020 271   166     0     0    47.3    45.6     1.7     0.0  167.18  167.96    0.00    0.00    0.00  167.18  141.61    0.00    0.00    0.76     0.4     0.4    0.36    0.30    0.30    0.56    4.47    0.07    0.20    0.16    0.16    0.08    0.08    0.03    0.05    0.83    0.60    0.52    0.52    0.38    0.38    0.60    4.52
 2020 272   167     0     0    48.3    46.7     1.7     0.0  168.26  169.02    0.00    0.00    0.00  168.26  141.61    0.00    0.00    0.80     0.5     0.5    0.47    0.35    0.35    0.59    4.50    0.07    0.20    0.16    0.16    0.08    0.08    0.03    0.05    0.87    0.73    0.63    0.63    0.43    0.43    0.62    4.54
 2020 273   168     0     0    49.4    47.6     1.7     0.0  169.27  170.00    0.00    0.00    0.00  169.27  141.61    0.00    0.00    0.84     0.6     0.6    0.56    0.40    0.40    0.61    4.52    0.07    0.21    0.16    0.16    0.08    0.08    0.04    0.05    0.91    0.85    0.72    0.72    0.48    0.48    0.64    4.57
 2020 274   169     0     0    50.3    48.6     1.8     0.0  170.23  170.93    0.00    0.00    0.00  170.23  141.61    0.00    0.00    0.88     0.8     0.6    0.65    0.44    0.44    0.62    4.55    0.07    0.21    0.17    0.17    0.08    0.08    0.04    0.05    0.95    0.97    0.82    0.82    0.53    0.53    0.66    4.59
 2020 275   170     0     0    51.2    49.4     1.8     0.0  171.13  171.78    0.00    0.00    0.00  171.13  141.61    0.00    0.00    0.91     0.9     0.7    0.73    0.48    0.48    0.64    4.57    0.08    0.21    0.17    0.17    0.08    0.08    0.04    0.05    0.99    1.06    0.90    0.90    0.57    0.57    0.68    4.62
 2020 276   171     0     0    52.0    50.2     1.8     0.0  171.93  172.53    0.00    0.00    0.00  171.93  141.61    0.00    0.00    0.94     0.9     0.8    0.80    0.52    0.52    0.66    4.59    0.08    0.22    0.18    0.18    0.09    0.09    0.04    0.05    1.03    1.15    0.98    0.98    0.61    0.61    0.70    4.64
 2020 277   172     0     0    52.8    51.0     1.9     0.0  172.74  173.32    0.00    0.00    0.00  172.74  141.61    0.00    0.00    0.98     1.0     0.9    0.88    0.56    0.56    0.68    4.61    0.09    0.22    0.18    0.18    0.09    0.09    0.04    0.05    1.07    1.23    1.05    1.06    0.64    0.64    0.71    4.66

*DSSAT Cropping System Model Ver. 4.7.5.035 -develop  JUN 11, 2021 16:21:59

*RUN   2        : 20 IRRIG, PETPEN KCB..... MZCER047 KSRT2001    2
 MODEL          : MZCER047 - Maize
 EXPERIMENT     : KSRT2001 SB ARM 2020 KS, IRRIGATED & NON-IRRIGATED
 DATA PATH      :
 TREATMENT  2   : 20 IRRIG, PETPEN KCB..... MZCER047
  
!                                                                                                                                      NO3 (ppm) at soil dep. (cm):                                    NH4 (ppm) at soil dep. (cm):                                    Total Inorganic N @dep(ppm):
!                                                                                                                                       0-5    5-15   15-29   29-43   43-53   53-64  64-132 132-201     0-5    5-15   15-29   29-43   43-53   53-64  64-132 132-201     0-5    5-15   15-29   29-43   43-53   53-64  64-132 132-201
@YEAR DOY   DAS  NAPC  NI#M    NIAD    NITD    NHTD   NURTD    NMNC    NITC    NDNC    NIMC    AMLC   NNMNC    NUCM    NLCC    TDNC    NI1D    NI2D    NI3D    NI4D    NI5D    NI6D    NI7D    NI8D    NH1D    NH2D    NH3D    NH4D    NH5D    NH6D    NH7D    NH8D    NT1D    NT2D    NT3D    NT4D    NT5D    NT6D    NT7D    NT8D    
 2020 105     0     0     0    22.1    19.6     2.5     0.0    0.00    0.00    0.00    0.00    0.00    0.00    0.00    0.00    0.00    0.80     0.8     0.8    0.80    0.80    0.80    0.80    0.80    0.10    0.10    0.10    0.10    0.10    0.10    0.10    0.10    0.90    0.90    0.90    0.90    0.90    0.90    0.90    0.90
 2020 106     1     0     0    22.6    20.2     2.4     0.0    0.55    0.64    0.00    0.00    0.00    0.55    0.00    0.00    0.00    0.83     0.8     0.8    0.83    0.83    0.83    0.83    0.83    0.14    0.14    0.12    0.12    0.10    0.10    0.09    0.09    0.96    0.96    0.95    0.95    0.92    0.92    0.91    0.91
 2020 107     2     0     0    23.2    20.9     2.3     0.0    1.11    1.26    0.00    0.00    0.00    1.11    0.00    0.00    0.00    0.86     0.9     0.9    0.86    0.85    0.85    0.85    0.85    0.16    0.16    0.14    0.14    0.09    0.09    0.08    0.08    1.02    1.02    0.99    0.99    0.94    0.94    0.93    0.93
 2020 108     3     0     0    23.7    21.5     2.2     0.0    1.66    1.86    0.00    0.00    0.00    1.66    0.00    0.00    0.00    0.90     0.9     0.9    0.89    0.87    0.87    0.87    0.87    0.18    0.18    0.15    0.15    0.09    0.09    0.07    0.07    1.09    1.08    1.04    1.04    0.96    0.96    0.94    0.94
 2020 109     4     0     0    24.2    22.0     2.2     0.0    2.18    2.42    0.00    0.00    0.00    2.18    0.00    0.00    0.00    0.95     0.9     0.9    0.93    0.90    0.90    0.89    0.89    0.20    0.19    0.15    0.15    0.09    0.09    0.07    0.07    1.14    1.14    1.08    1.08    0.98    0.98    0.95    0.96
 2020 110     5     0     0    24.8    22.6     2.2     0.0    2.73    3.00    0.00    0.00    0.00    2.73    0.00    0.00    0.00    1.00     1.0     1.0    0.97    0.92    0.92    0.90    0.91    0.21    0.21    0.16    0.16    0.09    0.09    0.06    0.06    1.20    1.20    1.13    1.13    1.00    1.00    0.97    0.97
 2020 111     6     0     0    25.4    23.2     2.2     0.0    3.32    3.60    0.00    0.00    0.00    3.32    0.00    0.00    0.00    1.06     1.1     1.0    1.01    0.94    0.94    0.92    0.92    0.22    0.22    0.17    0.17    0.08    0.08    0.06    0.06    1.27    1.27    1.18    1.18    1.02    1.02    0.98    0.98
 2020 112     7     0     0    26.0    23.8     2.2     0.0    3.95    4.23    0.00    0.00    0.00    3.95    0.00    0.00    0.00    1.12     1.1     1.1    1.06    0.96    0.96    0.94    0.94    0.22    0.22    0.17    0.17    0.08    0.08    0.06    0.06    1.34    1.34    1.23    1.23    1.05    1.05    1.00    1.00
 2020 113     8     0     0    26.6    24.5     2.2     0.0    4.59    4.88    0.00    0.00    0.00    4.59    0.00    0.00    0.00    1.19     1.2     1.1    1.11    0.99    0.99    0.95    0.96    0.23    0.23    0.17    0.17    0.08    0.08    0.06    0.06    1.42    1.42    1.29    1.28    1.07    1.07    1.01    1.01
 2020 114     9     0     0    27.3    25.2     2.2     0.0    5.28    5.57    0.00    0.00    0.00    5.28    0.00    0.00    0.00    1.27     1.3     1.2    1.17    1.02    1.02    0.97    0.98    0.23    0.23    0.18    0.18    0.08    0.08    0.06    0.06    1.50    1.50    1.35    1.34    1.10    1.10    1.03    1.03
 2020 115    10     0     0    28.0    25.9     2.2     0.0    6.00    6.30    0.00    0.00    0.00    6.00    0.00    0.00    0.00    1.35     1.3     1.2    1.23    1.04    1.04    0.99    0.99    0.23    0.23    0.18    0.18    0.08    0.08    0.05    0.05    1.59    1.58    1.41    1.41    1.13    1.13    1.04    1.05
 2020 116    11     0     0    28.7    26.6     2.1     0.0    6.70    7.00    0.00    0.00    0.00    6.70    0.00    0.00    0.00    1.43     1.4     1.3    1.29    1.07    1.07    1.01    1.01    0.24    0.24    0.18    0.18    0.08    0.08    0.05    0.05    1.67    1.66    1.47    1.47    1.15    1.15    1.06    1.06
 2020 117    12     0     0    29.4    27.3     2.1     0.0    7.37    7.67    0.00    0.00    0.00    7.37    0.00    0.00    0.00    1.51     1.5     1.3    1.34    1.10    1.10    1.02    1.03    0.24    0.24    0.18    0.18    0.08    0.08    0.05    0.05    1.75    1.74    1.53    1.52    1.18    1.18    1.08    1.08
 2020 118    13     0     0    30.1    28.0     2.1     0.0    8.10    8.41    0.00    0.00    0.00    8.10    0.00    0.00    0.00    1.60     1.6     1.4    1.41    1.13    1.12    1.04    1.04    0.24    0.24    0.18    0.18    0.08    0.08    0.05    0.05    1.84    1.83    1.59    1.59    1.21    1.21    1.09    1.10
 2020 119    14     0     0    30.9    28.8     2.1     0.0    8.91    9.24    0.00    0.00    0.00    8.91    0.00    0.00    0.00    1.70     1.7     1.5    1.48    1.16    1.15    1.06    1.06    0.23    0.23    0.18    0.18    0.08    0.08    0.05    0.05    1.94    1.93    1.67    1.66    1.24    1.24    1.11    1.11
 2020 120    15     0     0    31.8    29.7     2.1     0.0    9.74   10.08    0.00    0.00    0.00    9.74    0.00    0.00    0.00    1.81     1.8     1.6    1.55    1.19    1.19    1.08    1.08    0.23    0.23    0.18    0.18    0.08    0.08    0.05    0.05    2.04    2.03    1.74    1.73    1.27    1.27    1.13    1.13
 2020 121    16     0     0    32.6    30.6     2.1     0.0   10.62   10.98    0.00    0.00    0.00   10.62    0.00    0.00    0.00    1.92     1.9     1.6    1.63    1.22    1.22    1.10    1.10    0.23    0.23    0.17    0.18    0.08    0.08    0.05    0.05    2.15    2.13    1.82    1.81    1.30    1.30    1.15    1.15
 2020 122    17     0     0    33.6    31.6     2.0     0.0   11.58   12.00    0.00    0.00    0.00   11.58    0.00    0.00    0.00    2.05     2.0     1.7    1.72    1.26    1.26    1.12    1.12    0.22    0.22    0.17    0.17    0.08    0.08    0.05    0.05    2.27    2.25    1.91    1.89    1.34    1.34    1.17    1.17
 2020 123    18     0     0    34.6    32.6     2.0     0.0   12.59   13.06    0.00    0.00    0.00   12.59    0.00    0.00    0.00    2.19     2.2     1.8    1.82    1.31    1.30    1.15    1.14    0.21    0.21    0.16    0.16    0.08    0.08    0.05    0.05    2.40    2.38    2.00    1.98    1.38    1.38    1.20    1.19
 2020 124    19     0     0    35.6    33.6     2.0     0.0   13.58   14.07    0.00    0.00    0.00   13.58    0.00    0.00    0.00    2.32     2.3     1.9    1.91    1.35    1.34    1.17    1.16    0.21    0.21    0.16    0.16    0.07    0.08    0.05    0.05    2.52    2.50    2.09    2.07    1.42    1.41    1.22    1.21
 2020 125    20     0     0    36.6    34.6     2.0     0.0   14.57   15.05    0.00    0.00    0.00   14.57    0.00    0.00    0.00    2.44     2.4     2.0    1.99    1.38    1.38    1.19    1.18    0.21    0.21    0.16    0.16    0.07    0.08    0.05    0.05    2.65    2.62    2.18    2.16    1.46    1.45    1.24    1.24
 2020 126    21     0     0    37.6    35.6     2.0     0.0   15.56   16.06    0.00    0.00    0.00   15.56    0.00    0.00    0.00    2.57     2.5     2.1    2.08    1.42    1.42    1.22    1.20    0.21    0.21    0.16    0.16    0.07    0.08    0.05    0.05    2.77    2.75    2.27    2.25    1.50    1.49    1.27    1.26
 2020 127    22     0     0    38.5    36.6     2.0     0.0   16.52   17.00    0.00    0.00    0.00   16.52    0.00    0.00    0.00    2.68     2.7     2.2    2.17    1.46    1.45    1.24    1.23    0.21    0.21    0.16    0.16    0.07    0.08    0.05    0.05    2.89    2.87    2.36    2.33    1.54    1.53    1.29    1.28
 2020 128    23     0     0    39.4    37.4     2.0     0.0   17.40   17.85    0.00    0.00    0.00   17.40    0.00    0.00    0.00    2.79     2.8     2.3    2.24    1.49    1.48    1.26    1.24    0.21    0.22    0.17    0.17    0.08    0.08    0.05    0.05    3.00    2.98    2.44    2.41    1.57    1.56    1.31    1.30
 2020 129    24     0     0    40.3    38.3     2.0     0.0   18.29   18.71    0.00    0.00    0.00   18.29    0.00    0.00    0.00    2.89     2.9     2.4    2.32    1.53    1.52    1.28    1.26    0.22    0.22    0.17    0.17    0.08    0.08    0.05    0.05    3.11    3.08    2.52    2.49    1.60    1.59    1.33    1.31
 2020 130    25     0     0    41.1    39.1     2.0     0.0   19.11   19.51    0.00    0.00    0.00   19.11    0.00    0.00    0.00    2.99     3.0     2.4    2.38    1.56    1.55    1.30    1.28    0.22    0.22    0.17    0.17    0.08    0.08    0.05    0.05    3.21    3.18    2.59    2.56    1.64    1.63    1.35    1.33
 2020 131    26     0     0    41.9    39.8     2.1     0.0   19.89   20.27    0.00    0.00    0.00   19.89    0.00    0.00    0.00    3.08     3.1     2.5    2.45    1.59    1.58    1.31    1.30    0.23    0.23    0.17    0.17    0.08    0.08    0.05    0.05    3.31    3.28    2.66    2.63    1.67    1.66    1.37    1.35
 2020 132    27     0     0    42.6    40.5     2.1     0.0   20.63   20.99    0.00    0.00    0.00   20.63    0.00    0.00    0.00    3.04     3.2     2.6    2.51    1.61    1.60    1.33    1.31    0.23    0.23    0.18    0.18    0.08    0.08    0.05    0.05    3.27    3.43    2.73    2.69    1.69    1.68    1.38    1.37
 2020 133    28     0     0    43.3    41.1     2.1     0.0   21.26   21.58    0.00    0.00    0.00   21.26    0.00    0.00    0.00    2.98     3.3     2.6    2.56    1.64    1.63    1.35    1.33    0.28    0.23    0.18    0.18    0.08    0.08    0.05    0.05    3.25    3.55    2.78    2.74    1.72    1.71    1.40    1.38
 2020 134    29     0     0    43.7    41.6     2.1     0.0   21.74   22.05    0.00    0.00    0.00   21.74    0.00    0.00    0.00    2.94     3.4     2.6    2.61    1.66    1.65    1.36    1.34    0.31    0.23    0.18    0.18    0.08    0.08    0.05    0.05    3.25    3.63    2.82    2.78    1.74    1.73    1.41    1.39
 2020 135    30     0     0    44.2    42.1     2.2     0.0   22.23   22.53    0.00    0.00    0.00   22.23    0.00    0.00    0.00    2.94     3.5     2.7    2.65    1.67    1.66    1.37    1.36    0.33    0.23    0.18    0.18    0.08    0.08    0.05    0.05    3.27    3.69    2.86    2.82    1.75    1.74    1.42    1.41
 2020 136    31     0     0    44.8    42.6     2.2     0.0   22.76   23.04    0.00    0.00    0.00   22.76    0.00    0.00    0.00    2.89     3.6     2.7    2.69    1.69    1.68    1.38    1.37    0.36    0.23    0.18    0.18    0.08    0.08    0.05    0.05    3.25    3.79    2.90    2.87    1.77    1.76    1.44    1.42
 2020 137    32     0     0    45.3    43.1     2.2     0.0   23.33   23.58    0.00    0.00    0.00   23.33    0.00    0.00    0.00    2.52     3.8     2.8    2.74    1.72    1.71    1.40    1.38    0.38    0.23    0.18    0.18    0.08    0.08    0.05    0.05    2.91    4.06    2.95    2.91    1.80    1.79    1.45    1.44
 2020 138    33     0     0    46.0    43.8     2.2     0.0   24.03   24.24    0.01    0.00    0.00   24.03    0.00    0.00    0.00    2.43     4.0     2.8    2.80    1.74    1.73    1.41    1.40    0.43    0.24    0.18    0.18    0.08    0.08    0.05    0.05    2.86    4.20    3.01    2.98    1.82    1.81    1.47    1.45
 2020 139    34     0     0    46.9    44.6     2.2     0.0   24.87   25.08    0.02    0.00    0.00   24.87    0.00    0.00    0.00    2.45     4.1     2.9    2.87    1.78    1.76    1.43    1.42    0.47    0.23    0.18    0.18    0.08    0.08    0.05    0.05    2.92    4.32    3.09    3.05    1.86    1.84    1.49    1.47
 2020 140    35     0     0    47.7    45.5     2.2     0.0   25.77   25.99    0.02    0.00    0.00   25.77    0.00    0.00    0.00    2.52     4.2     3.0    2.95    1.81    1.80    1.46    1.44    0.48    0.23    0.17    0.17    0.08    0.08    0.05    0.05    3.01    4.44    3.17    3.13    1.89    1.88    1.51    1.49
 2020 141    36     0     0    48.7    46.5     2.2     0.0   26.69   26.94    0.02    0.00    0.00   26.69    0.00    0.00    0.00    2.63     4.3     3.1    3.04    1.85    1.84    1.48    1.46    0.49    0.22    0.17    0.17    0.08    0.08    0.05    0.05    3.12    4.55    3.26    3.21    1.93    1.91    1.53    1.51
 2020 142    37     0     0    49.6    47.4     2.2     0.0   27.61   27.86    0.02    0.00    0.00   27.61    0.00    0.00    0.00    1.23     3.4     4.5    3.12    1.89    1.87    1.50    1.48    0.50    0.22    0.17    0.17    0.08    0.08    0.05    0.05    1.73    3.60    4.72    3.29    1.96    1.95    1.55    1.53
 2020 143    38     0     0    50.5    48.2     2.3     0.0   28.55   28.67    0.03    0.00    0.00   28.55    0.00    0.00    0.00    1.24     3.2     4.6    3.37    1.92    1.91    1.52    1.50    0.54    0.30    0.17    0.17    0.08    0.08    0.05    0.05    1.78    3.54    4.79    3.54    2.00    1.99    1.57    1.55
 2020 144    39     0     0    51.4    49.0     2.4     0.0   29.48   29.54    0.03    0.00    0.00   29.48    0.00    0.00    0.00    1.32     3.2     4.7    3.53    1.96    1.94    1.54    1.52    0.55    0.36    0.17    0.17    0.08    0.08    0.05    0.05    1.87    3.58    4.86    3.70    2.04    2.02    1.59    1.57
 2020 145    40     0     0    52.4    50.0     2.4     0.0   30.45   30.47    0.03    0.00    0.00   30.45    0.00    0.00    0.00    1.43     3.3     4.8    3.65    2.00    1.98    1.56    1.54    0.55    0.40    0.16    0.17    0.08    0.08    0.05    0.05    1.98    3.67    4.94    3.82    2.07    2.06    1.62    1.59
 2020 146    41     0     0    53.4    50.9     2.5     0.0   31.40   31.40    0.03    0.00    0.00   31.40    0.00    0.00    0.00    1.55     3.4     4.9    3.74    2.03    2.02    1.59    1.56    0.54    0.42    0.16    0.17    0.08    0.08    0.05    0.05    2.09    3.78    5.04    3.90    2.11    2.09    1.64    1.61
 2020 147    42     0     0    54.3    51.7     2.6     0.0   32.31   32.19    0.03    0.00    0.00   32.31    0.00    0.00    0.00    1.66     3.4     4.9    3.82    2.07    2.05    1.61    1.58    0.54    0.44    0.22    0.17    0.08    0.08    0.05    0.05    2.20    3.88    5.12    3.98    2.15    2.13    1.66    1.63
 2020 148    43     0     0    55.2    52.5     2.7     0.0   33.21   32.98    0.03    0.00    0.00   33.21    0.00    0.00    0.00    1.77     3.5     4.9    3.89    2.10    2.09    1.63    1.60    0.53    0.46    0.26    0.17    0.08    0.08    0.05    0.05    2.31    3.99    5.20    4.06    2.18    2.16    1.68    1.65
 2020 149    44     0     0    56.0    53.3     2.8     0.0   34.08   33.77    0.04    0.00    0.00   34.08    0.00    0.00    0.00    1.88     3.6     5.0    3.97    2.14    2.12    1.65    1.62    0.53    0.47    0.30    0.17    0.08    0.08    0.05    0.05    2.42    4.10    5.28    4.14    2.21    2.20    1.70    1.67
 2020 150    45     0     0    56.9    54.0     2.8     0.0   34.93   34.54    0.04    0.00    0.00   34.93    0.00    0.00    0.00    1.98     3.7     5.0    4.04    2.17    2.15    1.67    1.63    0.54    0.49    0.33    0.17    0.08    0.08    0.05    0.05    2.52    4.20    5.35    4.21    2.25    2.23    1.72    1.69
 2020 151    46     0     0    57.7    54.8     2.9     0.0   35.80   35.36    0.04    0.00    0.00   35.80    0.00    0.00    0.00    2.09     3.8     5.1    4.12    2.20    2.18    1.69    1.65    0.54    0.50    0.36    0.17    0.08    0.08    0.05    0.05    2.62    4.30    5.43    4.29    2.28    2.26    1.74    1.71
 2020 152    47     0     0    58.7    55.8     2.9     0.0   36.80   36.36    0.05    0.00    0.00   36.80    0.00    0.00    0.00    2.22     3.9     5.1    4.21    2.24    2.23    1.71    1.68    0.53    0.49    0.38    0.17    0.08    0.08    0.05    0.05    2.75    4.43    5.52    4.38    2.32    2.30    1.76    1.73
 2020 153    48     0     0    59.8    56.9     2.9     0.0   37.88   37.48    0.05    0.00    0.00   37.88    0.00    0.00    0.00    2.37     4.1     5.2    4.32    2.29    2.27    1.74    1.70    0.51    0.49    0.39    0.16    0.07    0.07    0.05    0.05    2.88    4.56    5.62    4.47    2.36    2.34    1.79    1.75
 2020 154    49     0     0    61.0    58.2     2.8     0.0   39.05   38.73    0.06    0.00    0.00   39.05    0.00    0.00    0.00    2.54     4.2     5.3    4.43    2.34    2.32    1.77    1.72    0.48    0.47    0.39    0.15    0.07    0.07    0.05    0.05    3.03    4.70    5.72    4.58    2.41    2.39    1.81    1.77
 2020 155    50     0     0    62.2    59.5     2.7     0.0   40.30   40.08    0.07    0.00    0.00   40.30    0.00    0.00    0.00    2.73     4.4     5.4    4.55    2.39    2.37    1.80    1.75    0.45    0.44    0.39    0.14    0.06    0.07    0.05    0.05    3.19    4.86    5.84    4.69    2.46    2.44    1.84    1.80
 2020 156    51     0     0    63.5    60.9     2.6     0.0   41.58   41.45    0.08    0.00    0.00   41.58    0.00    0.00    0.00    2.90     4.6     5.6    4.67    2.45    2.42    1.83    1.78    0.43    0.42    0.39    0.13    0.06    0.06    0.04    0.05    3.33    5.01    5.97    4.81    2.51    2.49    1.87    1.82
 2020 157    52     0     0    64.7    62.2     2.5     0.0   42.87   42.78    0.09    0.00    0.00   42.87    0.00    0.00    0.00    3.06     4.8     5.7    4.80    2.50    2.47    1.86    1.80    0.41    0.41    0.38    0.13    0.06    0.06    0.04    0.05    3.48    5.17    6.08    4.93    2.56    2.54    1.90    1.85
 2020 158    53     0     0    66.1    64.0     2.1     0.0   44.19   44.58    0.09    0.00    0.00   44.19    0.00    0.00    0.00    3.99     5.2     5.8    4.82    2.54    2.50    1.88    1.82    0.17    0.17    0.38    0.13    0.06    0.06    0.04    0.05    4.16    5.33    6.21    4.96    2.60    2.56    1.92    1.87
 2020 159    54     0     0    67.4    65.8     1.6     0.0   45.53   46.34    0.09    0.00    0.00   45.53    0.00    0.00    0.00    4.77     5.3     6.2    4.84    2.58    2.52    1.90    1.84    0.17    0.17    0.12    0.13    0.06    0.06    0.04    0.05    4.94    5.47    6.34    4.97    2.64    2.58    1.95    1.89
 2020 160    55     0     0    68.7    67.1     1.6     0.0   46.85   47.67    0.09    0.00    0.00   46.85    0.00    0.00    0.00    5.04     5.4     6.3    4.96    2.64    2.57    1.93    1.87    0.17    0.17    0.13    0.13    0.06    0.06    0.04    0.05    5.21    5.60    6.45    5.09    2.70    2.63    1.98    1.92
 2020 161    56     0     0    70.1    68.4     1.6     0.0   48.20   49.02    0.09    0.00    0.00   48.20    0.00    0.00    0.00    3.91     6.0     6.6    5.17    2.69    2.62    1.97    1.90    0.17    0.17    0.13    0.13    0.06    0.06    0.04    0.05    4.08    6.13    6.71    5.30    2.75    2.68    2.01    1.94
 2020 162    57     0     0    71.3    69.3     2.0     0.0   49.46   49.92    0.09    0.00    0.00   49.46    0.00    0.00    0.00    4.25     5.9     6.6    5.34    2.73    2.64    1.99    1.92    0.28    0.27    0.20    0.13    0.06    0.06    0.04    0.05    4.53    6.17    6.82    5.47    2.79    2.71    2.03    1.96
 2020 163    58     0     0    72.5    70.7     1.8     0.0   50.63   51.26    0.09    0.00    0.00   50.63    0.00    0.00    0.00    4.88     6.1     6.8    5.39    2.76    2.67    2.01    1.94    0.20    0.20    0.16    0.14    0.07    0.07    0.04    0.05    5.07    6.26    6.91    5.53    2.83    2.74    2.05    1.98
 2020 164    59     0     0    73.6    71.8     1.8     0.0   51.77   52.42    0.09    0.00    0.00   51.77    0.00    0.00    0.00    5.14     6.2     6.9    5.48    2.81    2.71    2.04    1.96    0.19    0.19    0.15    0.15    0.07    0.07    0.05    0.05    5.33    6.37    7.01    5.63    2.87    2.78    2.08    2.01
 2020 165    60     0     0    74.7    72.9     1.8     0.0   52.91   53.55    0.09    0.00    0.00   52.91    0.00    0.00    0.00    5.39     6.3     7.0    5.58    2.85    2.76    2.06    1.98    0.19    0.19    0.15    0.15    0.07    0.07    0.05    0.05    5.58    6.47    7.10    5.72    2.92    2.82    2.11    2.03
 2020 166    61     0     0    75.9    74.1     1.8     0.0   54.04   54.68    0.09    0.00    0.00   54.04    0.00    0.00    0.00    5.65     6.4     7.1    5.67    2.89    2.80    2.09    2.01    0.19    0.19    0.15    0.15    0.07    0.07    0.05    0.05    5.83    6.58    7.20    5.82    2.96    2.87    2.13    2.06
 2020 167    62     0     0    77.1    75.4     1.7     0.0   55.26   55.97    0.09    0.00    0.00   55.26    0.00    0.00    0.00    5.93     6.5     7.2    5.79    2.94    2.85    2.12    2.03    0.17    0.18    0.14    0.14    0.07    0.07    0.05    0.05    6.10    6.69    7.30    5.93    3.01    2.91    2.16    2.08
 2020 168    63     0     0    78.4    76.7     1.7     0.0   56.56   57.34    0.09    0.00    0.00   56.56    0.00    0.00    0.00    6.22     6.6     7.3    5.91    3.00    2.90    2.15    2.06    0.17    0.17    0.13    0.13    0.06    0.06    0.04    0.05    6.39    6.82    7.42    6.04    3.06    2.96    2.19    2.11
 2020 169    64     0     0    79.6    78.0     1.6     0.0   57.87   58.66    0.09    0.00    0.00   57.87    0.07    0.00    0.00    6.50     6.7     7.4    6.02    3.05    2.95    2.18    2.09    0.17    0.17    0.13    0.13    0.06    0.06    0.04    0.05    6.67    6.90    7.52    6.15    3.11    3.01    2.22    2.13
[...]
 2020 217   112     0     0    40.6    38.8     1.8     0.0  109.83  110.51    0.00    0.00    0.00  109.83   91.09    0.00    0.00    0.28     0.4     0.3    0.34    0.28    0.27    1.09    3.21    0.29    0.21    0.16    0.16    0.06    0.03    0.03    0.05    0.57    0.58    0.50    0.50    0.35    0.30    1.12    3.26
 2020 218   113     0     0    40.5    38.7     1.8     0.0  110.77  111.42    0.00    0.00    0.00  110.77   92.03    0.00    0.00    0.33     0.4     0.3    0.34    0.29    0.28    1.06    3.23    0.35    0.21    0.16    0.16    0.06    0.03    0.03    0.05    0.68    0.58    0.50    0.50    0.35    0.32    1.09    3.28
 2020 219   114     0     0    40.5    38.8     1.7     0.0  111.70  112.42    0.00    0.00    0.00  111.70   93.00    0.00    0.00    0.40     0.4     0.4    0.35    0.29    0.31    1.03    3.24    0.26    0.21    0.16    0.16    0.06    0.03    0.03    0.05    0.66    0.58    0.53    0.51    0.34    0.34    1.07    3.29
 2020 220   115     0     0    40.4    38.5     1.9     0.0  112.61  113.18    0.00    0.00    0.00  112.61   94.06    0.00    0.00    0.30     0.3     0.3    0.35    0.28    0.29    1.01    3.26    0.34    0.29    0.16    0.16    0.06    0.03    0.03    0.05    0.64    0.57    0.50    0.51    0.34    0.32    1.04    3.31
 2020 221   116     0     0    40.5    38.5     2.0     0.0  113.55  114.04    0.00    0.00    0.00  113.55   94.87    0.00    0.00    0.36     0.3     0.3    0.35    0.28    0.30    0.99    3.27    0.37    0.34    0.16    0.16    0.05    0.03    0.03    0.05    0.73    0.67    0.50    0.50    0.34    0.33    1.02    3.32
 2020 222   117     0     0    40.6    38.9     1.7     0.0  114.54  115.27    0.00    0.00    0.00  114.54   95.75    0.00    0.00    0.54     0.5     0.4    0.36    0.29    0.33    0.97    3.28    0.25    0.24    0.15    0.15    0.05    0.03    0.03    0.05    0.79    0.72    0.51    0.51    0.34    0.36    1.00    3.33
 2020 223   118     0     0    40.4    38.8     1.6     0.0  115.57  116.43    0.00    0.00    0.00  115.57   96.98    0.00    0.00    0.45     0.4     0.4    0.36    0.28    0.31    0.95    3.31    0.20    0.20    0.15    0.15    0.04    0.03    0.03    0.05    0.65    0.63    0.51    0.51    0.33    0.33    0.98    3.36
 2020 224   119     0     0    40.3    38.8     1.5     0.0  116.61  117.54    0.00    0.00    0.00  116.61   98.09    0.00    0.00    0.42     0.4     0.4    0.36    0.28    0.29    0.94    3.33    0.18    0.19    0.14    0.14    0.04    0.03    0.03    0.05    0.59    0.60    0.51    0.50    0.32    0.31    0.96    3.38
 2020 225   120     0     0    40.3    38.9     1.5     0.0  117.65  118.65    0.00    0.00    0.00  117.65   99.13    0.00    0.00    0.19     0.3     0.3    0.35    0.37    0.32    0.95    3.36    0.15    0.18    0.14    0.13    0.04    0.03    0.03    0.05    0.34    0.46    0.45    0.48    0.40    0.35    0.97    3.41
 2020 226   121     0     0    40.6    38.7     2.0     0.0  118.79  119.27    0.00    0.00    0.00  118.79   99.96    0.00    0.00    0.32     0.3     0.3    0.27    0.28    0.25    0.93    3.39    0.17    0.28    0.22    0.21    0.07    0.06    0.03    0.05    0.50    0.57    0.50    0.48    0.35    0.31    0.96    3.43
 2020 227   122     0     0    41.3    39.0     2.3     0.0  119.96  120.14    0.00    0.00    0.00  119.96  100.50    0.00    0.00    0.42     0.3     0.3    0.31    0.28    0.30    0.92    3.40    0.18    0.34    0.27    0.26    0.09    0.08    0.03    0.05    0.60    0.68    0.58    0.57    0.36    0.38    0.95    3.45
 2020 228   123     0     0    41.6    39.7     1.8     0.0  121.11  121.74    0.00    0.00    0.00  121.11  101.35    0.00    0.00    0.42     0.5     0.5    0.45    0.31    0.32    0.90    3.42    0.18    0.22    0.17    0.18    0.07    0.08    0.03    0.05    0.60    0.73    0.63    0.62    0.38    0.40    0.94    3.46
 2020 229   124     0     0    41.2    39.5     1.7     0.0  122.25  122.99    0.00    0.00    0.00  122.25  102.79    0.00    0.00    0.40     0.4     0.4    0.41    0.30    0.34    0.89    3.43    0.19    0.20    0.15    0.16    0.07    0.07    0.03    0.05    0.59    0.62    0.57    0.57    0.37    0.41    0.92    3.48
 2020 230   125     0     0    41.1    39.4     1.7     0.0  123.38  124.15    0.00    0.00    0.00  123.38  104.07    0.00    0.00    0.40     0.4     0.4    0.38    0.30    0.31    0.87    3.46    0.19    0.19    0.15    0.15    0.07    0.07    0.03    0.05    0.59    0.59    0.53    0.53    0.37    0.38    0.91    3.51
 2020 231   126     0     0    41.1    39.4     1.7     0.0  124.53  125.31    0.00    0.00    0.00  124.53  105.23    0.00    0.00    0.40     0.4     0.4    0.36    0.30    0.30    0.86    3.49    0.19    0.19    0.15    0.15    0.07    0.07    0.03    0.05    0.59    0.59    0.51    0.51    0.37    0.36    0.89    3.53
 2020 232   127     0     0    41.2    39.5     1.7     0.0  125.67  126.46    0.00    0.00    0.00  125.67  106.30    0.00    0.00    0.40     0.4     0.4    0.36    0.30    0.30    0.84    3.51    0.17    0.19    0.14    0.15    0.07    0.07    0.03    0.05    0.57    0.58    0.50    0.50    0.37    0.36    0.87    3.56
 2020 233   128     0     0    41.2    39.6     1.6     0.0  126.79  127.59    0.00    0.00    0.00  126.79  107.36    0.00    0.00    0.39     0.4     0.4    0.36    0.30    0.30    0.83    3.54    0.16    0.19    0.15    0.15    0.07    0.07    0.03    0.05    0.54    0.58    0.50    0.50    0.37    0.36    0.86    3.58
 2020 234   129     0     0    41.3    39.7     1.6     0.0  127.90  128.72    0.00    0.00    0.00  127.90  108.39    0.00    0.00    0.37     0.4     0.4    0.36    0.30    0.30    0.81    3.56    0.14    0.19    0.15    0.15    0.07    0.07    0.03    0.05    0.51    0.58    0.50    0.50    0.37    0.37    0.84    3.61
 2020 235   130     0     0    41.4    39.8     1.6     0.0  129.01  129.83    0.00    0.00    0.00  129.01  109.41    0.00    0.00    0.36     0.4     0.4    0.36    0.30    0.30    0.80    3.59    0.12    0.19    0.15    0.15    0.07    0.07    0.03    0.05    0.48    0.58    0.50    0.50    0.37    0.37    0.83    3.64
 2020 236   131     0     0    41.5    39.9     1.6     0.0  130.11  130.95    0.00    0.00    0.00  130.11  110.40    0.00    0.00    0.38     0.4     0.4    0.36    0.30    0.30    0.78    3.62    0.11    0.19    0.15    0.15    0.07    0.07    0.03    0.05    0.49    0.58    0.50    0.50    0.37    0.37    0.81    3.66
 2020 237   132     0     0    41.6    40.0     1.6     0.0  131.20  132.06    0.00    0.00    0.00  131.20  111.34    0.00    0.00    0.46     0.4     0.4    0.36    0.30    0.30    0.77    3.64    0.10    0.19    0.14    0.15    0.07    0.07    0.03    0.05    0.55    0.58    0.50    0.50    0.37    0.37    0.80    3.69
 2020 238   133     0     0    41.8    40.2     1.5     0.0  132.29  133.21    0.00    0.00    0.00  132.29  112.29    0.00    0.00    0.54     0.4     0.4    0.36    0.30    0.30    0.76    3.67    0.08    0.18    0.13    0.14    0.07    0.07    0.03    0.05    0.63    0.58    0.50    0.50    0.37    0.37    0.79    3.71
 2020 239   134     0     0    41.9    40.4     1.5     0.0  133.37  134.34    0.00    0.00    0.00  133.37  113.25    0.00    0.00    0.62     0.4     0.4    0.36    0.30    0.30    0.74    3.70    0.07    0.17    0.13    0.13    0.06    0.07    0.03    0.05    0.69    0.57    0.49    0.49    0.37    0.37    0.77    3.74
 2020 240   135     0     0    42.0    40.6     1.4     0.0  134.44  135.46    0.00    0.00    0.00  134.44  114.19    0.00    0.00    0.69     0.4     0.4    0.36    0.30    0.30    0.73    3.72    0.07    0.16    0.12    0.13    0.06    0.06    0.03    0.05    0.75    0.55    0.48    0.49    0.36    0.37    0.76    3.77
 2020 241   136     0     0    42.1    40.8     1.4     0.0  135.50  136.56    0.00    0.00    0.00  135.50  115.12    0.00    0.00    0.10     0.5     0.3    0.36    0.40    0.28    0.76    3.75    0.06    0.15    0.12    0.12    0.06    0.06    0.03    0.04    0.17    0.61    0.41    0.48    0.46    0.34    0.79    3.80
 2020 242   137     0     0    42.5    40.5     2.1     0.0  136.81  137.19    0.00    0.00    0.00  136.81  116.05    0.00    0.00    0.12     0.3     0.3    0.28    0.32    0.27    0.75    3.78    0.20    0.27    0.21    0.21    0.09    0.09    0.04    0.04    0.32    0.55    0.48    0.49    0.41    0.36    0.79    3.82
 2020 243   138     0     0    43.3    40.8     2.5     0.0  138.07  138.00    0.00    0.00    0.00  138.07  116.55    0.00    0.00    0.17     0.3     0.3    0.29    0.27    0.28    0.76    3.80    0.30    0.34    0.27    0.28    0.11    0.11    0.04    0.04    0.47    0.66    0.57    0.57    0.38    0.39    0.80    3.85
 2020 244   139     0     0    44.0    41.8     2.2     0.0  139.33  139.56    0.00    0.00    0.00  139.33  117.11    0.00    0.00    0.44     0.5     0.5    0.32    0.30    0.31    0.76    3.83    0.21    0.22    0.17    0.32    0.11    0.11    0.04    0.04    0.65    0.74    0.63    0.64    0.40    0.42    0.80    3.87
 2020 245   140     0     0    43.9    42.0     2.0     0.0  140.52  141.01    0.00    0.00    0.00  140.52  118.36    0.00    0.00    0.43     0.4     0.4    0.46    0.32    0.35    0.76    3.84    0.20    0.21    0.16    0.21    0.08    0.09    0.04    0.05    0.63    0.61    0.57    0.67    0.41    0.43    0.80    3.88
 2020 246   141     0     0    43.7    41.8     1.9     0.0  141.63  142.15    0.00    0.00    0.00  141.63  119.64    0.00    0.00    0.38     0.4     0.4    0.42    0.30    0.32    0.75    3.86    0.21    0.21    0.16    0.18    0.08    0.08    0.05    0.05    0.58    0.58    0.52    0.60    0.38    0.40    0.80    3.91
 2020 247   142     0     0    43.7    41.8     1.9     0.0  142.71  143.22    0.00    0.00    0.00  142.71  120.73    0.00    0.00    0.37     0.4     0.3    0.37    0.30    0.30    0.74    3.88    0.21    0.21    0.16    0.17    0.08    0.08    0.05    0.05    0.58    0.58    0.50    0.55    0.37    0.38    0.79    3.93
 2020 248   143     0     0    43.8    41.9     1.9     0.0  143.79  144.31    0.00    0.00    0.00  143.79  121.70    0.00    0.00    0.38     0.4     0.3    0.35    0.30    0.30    0.74    3.91    0.19    0.21    0.16    0.17    0.08    0.08    0.05    0.05    0.57    0.59    0.51    0.52    0.37    0.38    0.79    3.95
 2020 249   144     0     0    44.0    42.0     1.9     0.0  144.85  145.38    0.00    0.00    0.00  144.85  122.63    0.00    0.00    0.36     0.4     0.3    0.34    0.29    0.30    0.73    3.93    0.18    0.21    0.16    0.17    0.08    0.08    0.05    0.05    0.54    0.58    0.51    0.51    0.37    0.38    0.78    3.98
 2020 250   145     0     0    44.2    42.3     1.9     0.0  145.97  146.54    0.00    0.00    0.00  145.97  123.54    0.00    0.00    0.37     0.4     0.4    0.35    0.30    0.30    0.73    3.96    0.15    0.21    0.16    0.16    0.08    0.08    0.05    0.05    0.52    0.59    0.51    0.52    0.38    0.38    0.78    4.00
 2020 251   146     0     0    44.4    42.6     1.8     0.0  147.16  147.81    0.00    0.00    0.00  147.16  124.51    0.00    0.00    0.37     0.4     0.4    0.36    0.30    0.30    0.73    3.98    0.13    0.20    0.15    0.16    0.07    0.08    0.05    0.05    0.49    0.60    0.52    0.52    0.38    0.38    0.77    4.03
 2020 252   147     0     0    44.6    42.8     1.8     0.0  148.37  149.07    0.00    0.00    0.00  148.37  125.51    0.00    0.00    0.41     0.4     0.4    0.36    0.30    0.30    0.73    4.01    0.11    0.19    0.15    0.15    0.07    0.07    0.05    0.05    0.52    0.59    0.51    0.51    0.38    0.38    0.77    4.06
 2020 253   148     0     0    44.7    42.8     1.8     0.0  149.52  150.13    0.00    0.00    0.00  149.52  126.57    0.00    0.00    0.20     0.4     0.4    0.36    0.30    0.30    0.72    4.04    0.17    0.20    0.16    0.16    0.08    0.08    0.05    0.05    0.37    0.57    0.53    0.51    0.37    0.37    0.77    4.08
 2020 254   149     0     0    44.7    42.6     2.2     0.0  150.48  150.78    0.00    0.00    0.00  150.48  127.49    0.00    0.00    0.22     0.3     0.3    0.33    0.29    0.29    0.71    4.06    0.25    0.28    0.22    0.17    0.08    0.08    0.05    0.05    0.47    0.55    0.49    0.50    0.37    0.37    0.76    4.11
 2020 255   150     0     0    45.0    42.6     2.4     0.0  151.27  151.30    0.00    0.00    0.00  151.27  128.03    0.00    0.00    0.26     0.3     0.3    0.27    0.29    0.28    0.70    4.07    0.30    0.33    0.26    0.21    0.08    0.08    0.05    0.05    0.56    0.61    0.53    0.48    0.37    0.37    0.75    4.12
 2020 256   151     0     0    45.2    42.7     2.5     0.0  151.95  151.85    0.00    0.00    0.00  151.95  128.47    0.00    0.00    0.31     0.3     0.3    0.31    0.27    0.30    0.70    4.07    0.33    0.36    0.29    0.21    0.09    0.09    0.05    0.05    0.65    0.64    0.56    0.52    0.36    0.38    0.75    4.12
 2020 257   152     0     0    45.3    42.8     2.5     0.0  152.58  152.57    0.00    0.00    0.00  152.58  129.04    0.00    0.00    0.37     0.3     0.3    0.31    0.27    0.30    0.70    4.07    0.31    0.33    0.26    0.20    0.09    0.09    0.05    0.05    0.68    0.67    0.58    0.51    0.36    0.39    0.75    4.12
 2020 258   153     0     0    45.3    42.9     2.4     0.0  153.32  153.38    0.00    0.00    0.00  153.32  129.79    0.00    0.00    0.35     0.3     0.3    0.31    0.28    0.28    0.69    4.09    0.29    0.31    0.24    0.20    0.09    0.09    0.05    0.05    0.64    0.65    0.57    0.51    0.37    0.37    0.74    4.14
 2020 259   154     0     0    45.4    43.1     2.3     0.0  154.22  154.39    0.00    0.00    0.00  154.22  130.54    0.00    0.00    0.37     0.4     0.3    0.33    0.29    0.29    0.68    4.11    0.27    0.28    0.22    0.19    0.09    0.09    0.05    0.05    0.64    0.65    0.56    0.53    0.38    0.38    0.74    4.16
 2020 260   155     0     0    45.6    43.4     2.1     0.0  155.24  155.54    0.00    0.00    0.00  155.24  131.41    0.00    0.00    0.39     0.4     0.4    0.35    0.30    0.30    0.68    4.14    0.23    0.25    0.19    0.18    0.09    0.09    0.05    0.05    0.63    0.64    0.55    0.53    0.38    0.38    0.73    4.18
 2020 261   156     0     0    45.7    43.6     2.1     0.0  156.30  156.70    0.00    0.00    0.00  156.30  132.37    0.00    0.00    0.38     0.4     0.4    0.35    0.30    0.30    0.68    4.16    0.20    0.24    0.18    0.18    0.08    0.08    0.05    0.05    0.58    0.62    0.54    0.53    0.38    0.38    0.73    4.21
 2020 262   157     0     0    45.7    43.7     2.0     0.0  157.34  157.79    0.00    0.00    0.00  157.34  133.33    0.00    0.00    0.36     0.4     0.3    0.34    0.30    0.29    0.68    4.19    0.18    0.23    0.18    0.17    0.08    0.08    0.05    0.05    0.54    0.60    0.52    0.52    0.38    0.38    0.73    4.23
 2020 263   158     0     0    45.9    43.9     2.0     0.0  158.37  158.83    0.00    0.00    0.00  158.37  134.22    0.00    0.00    0.35     0.4     0.3    0.34    0.29    0.29    0.67    4.21    0.16    0.23    0.17    0.17    0.08    0.08    0.05    0.05    0.50    0.59    0.52    0.51    0.38    0.38    0.72    4.26
 2020 264   159     0     0    46.0    44.1     2.0     0.0  159.39  159.87    0.00    0.00    0.00  159.39  135.08    0.00    0.00    0.35     0.4     0.3    0.34    0.29    0.29    0.67    4.23    0.14    0.23    0.17    0.17    0.08    0.08    0.05    0.05    0.49    0.59    0.51    0.51    0.38    0.38    0.72    4.28
 2020 265   160     0     0    46.3    44.3     2.0     0.0  160.43  160.93    0.00    0.00    0.00  160.43  135.89    0.00    0.00    0.41     0.4     0.3    0.34    0.30    0.30    0.67    4.26    0.13    0.22    0.17    0.17    0.08    0.08    0.05    0.05    0.53    0.59    0.52    0.52    0.38    0.38    0.72    4.31
 2020 266   161     0     0    46.5    44.6     1.9     0.0  161.48  161.99    0.00    0.00    0.00  161.48  136.71    0.00    0.00    0.48     0.4     0.3    0.35    0.30    0.30    0.67    4.28    0.11    0.22    0.17    0.17    0.08    0.08    0.05    0.05    0.59    0.59    0.52    0.52    0.38    0.38    0.71    4.33
 2020 267   162     0     0    46.7    44.8     1.9     0.0  162.54  163.07    0.00    0.00    0.00  162.54  137.53    0.00    0.00    0.55     0.4     0.3    0.35    0.30    0.30    0.66    4.31    0.10    0.22    0.17    0.17    0.08    0.08    0.05    0.05    0.65    0.59    0.52    0.52    0.38    0.38    0.71    4.36
 2020 268   163     0     0    47.0    45.1     1.9     0.0  163.61  164.17    0.00    0.00    0.00  163.61  138.36    0.00    0.00    0.61     0.4     0.3    0.35    0.30    0.30    0.66    4.33    0.09    0.22    0.17    0.17    0.08    0.08    0.05    0.05    0.70    0.59    0.52    0.52    0.38    0.38    0.71    4.38
 2020 269   164     0     0    47.2    45.4     1.9     0.0  164.72  165.32    0.00    0.00    0.00  164.72  139.20    0.00    0.00    0.67     0.4     0.4    0.36    0.30    0.30    0.66    4.36    0.08    0.21    0.16    0.16    0.08    0.08    0.05    0.05    0.75    0.60    0.52    0.52    0.38    0.38    0.71    4.41
 2020 270   165     0     0    47.5    45.7     1.8     0.0  165.87  166.51    0.00    0.00    0.00  165.87  140.09    0.00    0.00    0.72     0.4     0.4    0.36    0.30    0.30    0.67    4.39    0.07    0.21    0.16    0.16    0.08    0.08    0.05    0.05    0.79    0.60    0.52    0.52    0.38    0.38    0.71    4.43
 2020 271   166     0     0    47.7    46.0     1.8     0.0  167.05  167.73    0.00    0.00    0.00  167.05  141.00    0.00    0.00    0.76     0.4     0.4    0.36    0.30    0.30    0.67    4.41    0.07    0.20    0.16    0.16    0.08    0.07    0.05    0.05    0.83    0.60    0.52    0.52    0.38    0.38    0.72    4.46
 2020 272   167     0     0    48.9    47.1     1.8     0.0  168.18  168.85    0.00    0.00    0.00  168.18  141.00    0.00    0.00    0.80     0.5     0.5    0.47    0.35    0.35    0.70    4.44    0.07    0.20    0.16    0.16    0.08    0.07    0.05    0.05    0.87    0.73    0.62    0.62    0.43    0.42    0.74    4.49
 2020 273   168     0     0    49.9    48.1     1.8     0.0  169.25  169.88    0.00    0.00    0.00  169.25  141.00    0.00    0.00    0.84     0.6     0.6    0.56    0.40    0.39    0.72    4.47    0.07    0.20    0.16    0.16    0.08    0.08    0.05    0.05    0.91    0.85    0.72    0.72    0.48    0.47    0.77    4.51
 2020 274   169     0     0    51.0    49.1     1.9     0.0  170.27  170.86    0.00    0.00    0.00  170.27  141.00    0.00    0.00    0.88     0.7     0.6    0.65    0.44    0.44    0.75    4.49    0.07    0.20    0.17    0.17    0.08    0.08    0.05    0.05    0.95    0.95    0.82    0.82    0.53    0.51    0.80    4.54
 2020 275   170     0     0    51.9    50.0     1.9     0.0  171.21  171.76    0.00    0.00    0.00  171.21  141.00    0.00    0.00    0.91     0.8     0.7    0.73    0.48    0.47    0.78    4.51    0.08    0.21    0.17    0.17    0.08    0.08    0.05    0.05    0.99    1.05    0.90    0.90    0.57    0.55    0.83    4.56
 2020 276   171     0     0    52.8    50.8     1.9     0.0  172.06  172.56    0.00    0.00    0.00  172.06  141.00    0.00    0.00    0.95     0.9     0.8    0.80    0.52    0.51    0.80    4.53    0.08    0.21    0.18    0.18    0.09    0.08    0.05    0.05    1.03    1.13    0.98    0.98    0.61    0.59    0.85    4.58
 2020 277   172     0     0    53.6    51.6     2.0     0.0  172.92  173.39    0.00    0.00    0.00  172.92  141.00    0.00    0.00    0.98     1.0     0.9    0.88    0.56    0.54    0.82    4.56    0.09    0.21    0.18    0.18    0.09    0.08    0.05    0.05    1.07    1.22    1.05    1.06    0.64    0.62    0.87    4.60
