*WATER BALANCE OUTPUT FILE

*DSSAT Cropping System Model Ver. 4.7.5.035 -develop  JUN 14, 2021 09:08:55

*RUN   1        : 20 IRRIG, PETPEN NO KCB.. MZCER047 KSRT2001    1
 MODEL          : MZCER047 - Maize
 EXPERIMENT     : KSRT2001 SB ARM 2020 KS, IRRIGATED
 DATA PATH      :
 TREATMENT  1   : 20 IRRIG, PETPEN NO KCB.. MZCER047
  

!     WATER BALANCE PARAMETERS
!     ========================                 --mm--

!     Soil H20 (start) on Year/day 2020/106    603.00
!     Soil H20 (final) on Year/day 2020/277    489.31
!     Effective Irrigation                     206.25
!     Precipitation                            228.80
!     Water added with new mulch                 0.00
!     Drainage                                   0.00
!     Tiledrain flow                             0.00
!     Runoff                                     1.85
!     Mulch evaporation                          0.00
!     Soil Evaporation                         287.26
!     Transpiration                            259.64
!     Potential ET                            1093.96

!     Initial mulch water content                0.00
!     Final mulch water content                  0.00

!     Final Balance                            -0.011


*DSSAT Cropping System Model Ver. 4.7.5.035 -develop  JUN 14, 2021 09:08:55

*RUN   2        : 20 IRRIG, PETPEN KCB..... MZCER047 KSRT2001    2
 MODEL          : MZCER047 - Maize
 EXPERIMENT     : KSRT2001 SB ARM 2020 KS, IRRIGATED
 DATA PATH      :
 TREATMENT  2   : 20 IRRIG, PETPEN KCB..... MZCER047
  

!     WATER BALANCE PARAMETERS
!     ========================                 --mm--

!     Soil H20 (start) on Year/day 2020/106    603.00
!     Soil H20 (final) on Year/day 2020/277    577.70
!     Effective Irrigation                     206.25
!     Precipitation                            228.80
!     Water added with new mulch                 0.00
!     Drainage                                   0.00
!     Tiledrain flow                             0.00
!     Runoff                                     4.10
!     Mulch evaporation                          0.00
!     Soil Evaporation                         131.46
!     Transpiration                            324.79
!     Potential ET                             422.56

!     Initial mulch water content                0.00
!     Final mulch water content                  0.00

!     Final Balance                             0.001


*DSSAT Cropping System Model Ver. 4.7.5.035 -develop  JUN 14, 2021 09:08:55

*RUN   3        : 20 IRRIG, ASCE SHORT..... MZCER047 KSRT2001    3
 MODEL          : MZCER047 - Maize
 EXPERIMENT     : KSRT2001 SB ARM 2020 KS, IRRIGATED
 DATA PATH      :
 TREATMENT  3   : 20 IRRIG, ASCE SHORT..... MZCER047
  

!     WATER BALANCE PARAMETERS
!     ========================                 --mm--

!     Soil H20 (start) on Year/day 2020/106    603.00
!     Soil H20 (final) on Year/day 2020/277    493.73
!     Effective Irrigation                     206.25
!     Precipitation                            228.80
!     Water added with new mulch                 0.00
!     Drainage                                   0.00
!     Tiledrain flow                             0.00
!     Runoff                                     1.69
!     Mulch evaporation                          0.00
!     Soil Evaporation                         296.99
!     Transpiration                            245.64
!     Potential ET                            1343.94

!     Initial mulch water content                0.00
!     Final mulch water content                  0.00

!     Final Balance                            -0.004

