*SOIL ORGANIC N BALANCE

*DSSAT Cropping System Model Ver. 4.7.5.035 -develop  JUN 10, 2021 14:49:00

*RUN   1        : 20 IRRIG, light rate,freq MZCER047 KSRT2001    1
 MODEL          : MZCER047 - Maize
 EXPERIMENT     : KSRT2001 SB ARM 2020 KS, IRRIGATED & NON-IRRIGATED
 DATA PATH      :
 TREATMENT  1   : 20 IRRIG, light rate,freq MZCER047
  


!                                        INITIAL Year/Doy      FINAL Year/Doy
!                                                2020/130            2020/277
!SOIL N BALANCE                                 -----------kg N/ha-----------

!   Soil Humus N                                 18282.50            18128.44
!   Soil Litter N                                    0.00                6.41
!   N in Surface Residue                             0.00                0.00

!   Added to / Removed from Soil:
!   N in Harvest Residues from Previous Crop         0.00
!   N from Organic Applications                      8.00
!   N from senesced plant matter                     7.89
!   N immobilized                                    0.01
!   N mineralized                                                      163.55

!   Total N balance                              18298.40            18298.40
!   Balance                                                             0.000
