*SOIL INORGANIC N BALANCE

*DSSAT Cropping System Model Ver. 4.7.5.035 -develop  JUN 10, 2021 14:49:00

*RUN   1        : 20 IRRIG, light rate,freq MZCER047 KSRT2001    1
 MODEL          : MZCER047 - Maize
 EXPERIMENT     : KSRT2001 SB ARM 2020 KS, IRRIGATED & NON-IRRIGATED
 DATA PATH      :
 TREATMENT  1   : 20 IRRIG, light rate,freq MZCER047
  


!SOIL INORGANIC N BALANCE                         Initial               Final
!                                                Year/Doy            Year/Doy
!                                                2020/130            2020/277
!                                               (kg[N]/ha)          (kg[N]/ha)
! Soil N state variables:
!   Soil NO3                                        19.61               49.04
!   Soil NH4                                         2.45                2.03
!   Soil Urea                                        0.00                0.00
!   Soil N gases                                     0.00                0.14
!   Unreleased fert N                                                    0.00

! N additions:
!   Fertilizer N                                     0.00
!   Mineralized N                                  163.55

! N subtractions:
!   N immobilized                                                        0.01
!   N leached                                                            0.00
!   N loss to tile drainage                                              0.00
!   N Uptake From Soil                                                 134.18
!   NH3 loss                                                             0.00
!   N2O loss                                                             0.10
!   N2 loss                                                              0.01
!   NO loss                                                              0.10

!   Total N balance                                185.61              185.61
!   Balance                                                             0.000
