*Soil Inorganic Nitrogen daily output file

*DSSAT Cropping System Model Ver. 4.7.5.035 -develop  JUN 10, 2021 14:49:00

*RUN   1        : 20 IRRIG, light rate,freq MZCER047 KSRT2001    1
 MODEL          : MZCER047 - Maize
 EXPERIMENT     : KSRT2001 SB ARM 2020 KS, IRRIGATED & NON-IRRIGATED
 DATA PATH      :
 TREATMENT  1   : 20 IRRIG, light rate,freq MZCER047
  
!                                                                                                                                      NO3 (ppm) at soil dep. (cm):                                    NH4 (ppm) at soil dep. (cm):                                    Total Inorganic N @dep(ppm):
!                                                                                                                                       0-5    5-15   15-29   29-43   43-53   53-64  64-132 132-201     0-5    5-15   15-29   29-43   43-53   53-64  64-132 132-201     0-5    5-15   15-29   29-43   43-53   53-64  64-132 132-201
@YEAR DOY   DAS  NAPC  NI#M    NIAD    NITD    NHTD   NURTD    NMNC    NITC    NDNC    NIMC    AMLC   NNMNC    NUCM    NLCC    TDNC    NI1D    NI2D    NI3D    NI4D    NI5D    NI6D    NI7D    NI8D    NH1D    NH2D    NH3D    NH4D    NH5D    NH6D    NH7D    NH8D    NT1D    NT2D    NT3D    NT4D    NT5D    NT6D    NT7D    NT8D    
 2020 129     0     0     0    22.1    19.6     2.5     0.0    0.00    0.00    0.00    0.00    0.00    0.00    0.00    0.00    0.00    0.80     0.8     0.8    0.80    0.80    0.80    0.80    0.80    0.10    0.10    0.10    0.10    0.10    0.10    0.10    0.10    0.90    0.90    0.90    0.90    0.90    0.90    0.90    0.90
 2020 130     1     0     0    22.6    20.3     2.4     0.0    0.57    0.66    0.00    0.00    0.00    0.57    0.00    0.00    0.00    0.83     0.8     0.8    0.83    0.83    0.83    0.83    0.83    0.14    0.14    0.12    0.12    0.10    0.10    0.09    0.09    0.97    0.96    0.95    0.95    0.92    0.92    0.91    0.91
 2020 131     2     0     0    23.2    20.9     2.3     0.0    1.18    1.32    0.00    0.00    0.00    1.18    0.00    0.00    0.00    0.88     0.9     0.9    0.86    0.85    0.85    0.85    0.85    0.17    0.17    0.14    0.14    0.09    0.09    0.08    0.08    1.05    1.03    1.00    1.00    0.94    0.94    0.93    0.93
 2020 132     3     0     0    23.8    21.6     2.3     0.0    1.80    1.99    0.00    0.00    0.00    1.80    0.00    0.00    0.00    0.94     0.9     0.9    0.90    0.88    0.88    0.87    0.87    0.19    0.19    0.15    0.15    0.09    0.09    0.07    0.07    1.13    1.10    1.05    1.05    0.97    0.97    0.94    0.94
 2020 133     4     0     0    24.4    22.2     2.2     0.0    2.35    2.57    0.00    0.00    0.00    2.35    0.00    0.00    0.00    1.01     1.0     0.9    0.94    0.90    0.90    0.89    0.89    0.20    0.20    0.16    0.16    0.09    0.09    0.07    0.07    1.21    1.15    1.10    1.10    0.99    0.99    0.96    0.96
 2020 134     5     0     0    24.9    22.7     2.2     0.0    2.83    3.09    0.00    0.00    0.00    2.83    0.00    0.00    0.00    1.07     1.0     1.0    0.97    0.92    0.92    0.91    0.91    0.21    0.21    0.16    0.16    0.08    0.08    0.06    0.06    1.28    1.20    1.14    1.14    1.01    1.01    0.97    0.97
 2020 135     6     0     0    25.4    23.2     2.2     0.0    3.32    3.61    0.00    0.00    0.00    3.32    0.00    0.00    0.00    1.13     1.0     1.0    1.01    0.94    0.94    0.92    0.92    0.21    0.21    0.17    0.17    0.08    0.08    0.06    0.06    1.35    1.25    1.17    1.18    1.02    1.02    0.98    0.98
 2020 136     7     0     0    25.9    23.7     2.1     0.0    3.84    4.15    0.00    0.00    0.00    3.84    0.00    0.00    0.00    1.20     1.1     1.0    1.05    0.96    0.96    0.94    0.94    0.22    0.22    0.17    0.17    0.08    0.08    0.06    0.06    1.42    1.30    1.22    1.22    1.04    1.04    0.99    1.00
 2020 137     8     0     0    26.5    24.3     2.1     0.0    4.42    4.72    0.00    0.00    0.00    4.42    0.00    0.00    0.00    1.28     1.1     1.1    1.10    0.98    0.98    0.95    0.95    0.22    0.22    0.17    0.17    0.08    0.08    0.06    0.06    1.50    1.36    1.26    1.27    1.07    1.07    1.01    1.01
 2020 138     9     0     0    27.2    25.0     2.1     0.0    5.11    5.42    0.00    0.00    0.00    5.11    0.00    0.00    0.00    1.38     1.2     1.1    1.15    1.01    1.01    0.97    0.97    0.23    0.23    0.17    0.17    0.08    0.08    0.06    0.06    1.61    1.43    1.32    1.33    1.09    1.09    1.02    1.03
 2020 139    10     0     0    28.0    25.9     2.1     0.0    5.95    6.28    0.00    0.00    0.00    5.95    0.00    0.00    0.00    1.50     1.3     1.2    1.22    1.04    1.04    0.99    0.99    0.23    0.23    0.17    0.17    0.08    0.08    0.05    0.05    1.73    1.53    1.40    1.40    1.12    1.12    1.04    1.04
 2020 140    11     0     0    28.9    26.8     2.1     0.0    6.85    7.21    0.00    0.00    0.00    6.85    0.00    0.00    0.00    1.64     1.4     1.3    1.31    1.08    1.08    1.01    1.01    0.22    0.22    0.17    0.17    0.08    0.08    0.05    0.05    1.86    1.63    1.48    1.48    1.16    1.16    1.06    1.06
 2020 141    12     0     0    29.8    27.8     2.1     0.0    7.77    8.17    0.00    0.00    0.00    7.77    0.00    0.00    0.00    1.78     1.5     1.4    1.39    1.12    1.11    1.03    1.03    0.22    0.22    0.17    0.17    0.08    0.08    0.05    0.05    2.00    1.74    1.56    1.56    1.19    1.19    1.08    1.08
 2020 142    13     0     0    30.7    28.7     2.0     0.0    8.69    9.10    0.00    0.00    0.00    8.69    0.00    0.00    0.00    0.78     1.9     1.7    1.47    1.15    1.15    1.05    1.05    0.22    0.22    0.17    0.17    0.08    0.08    0.05    0.05    1.00    2.13    1.86    1.64    1.23    1.23    1.11    1.10
 2020 143    14     0     0    31.7    29.5     2.2     0.0    9.62    9.90    0.00    0.00    0.00    9.62    0.00    0.00    0.00    0.85     1.9     1.8    1.55    1.19    1.19    1.08    1.07    0.29    0.30    0.17    0.17    0.08    0.08    0.05    0.05    1.13    2.16    2.00    1.72    1.27    1.26    1.13    1.12
 2020 144    15     0     0    32.6    30.4     2.2     0.0   10.55   10.80    0.00    0.00    0.00   10.55    0.00    0.00    0.00    1.43     1.9     1.9    1.59    1.22    1.22    1.09    1.08    0.25    0.35    0.17    0.17    0.08    0.08    0.05    0.05    1.68    2.28    2.08    1.75    1.30    1.29    1.14    1.13
 2020 145    16     0     0    33.5    31.5     2.1     0.0   11.52   11.89    0.00    0.00    0.00   11.52    0.00    0.00    0.00    2.02     2.1     2.0    1.62    1.25    1.25    1.10    1.09    0.23    0.27    0.16    0.17    0.08    0.08    0.05    0.05    2.24    2.42    2.14    1.79    1.33    1.33    1.15    1.14
 2020 146    17     0     0    34.5    32.5     2.0     0.0   12.47   12.89    0.00    0.00    0.00   12.47    0.00    0.00    0.00    2.18     2.3     2.1    1.71    1.29    1.29    1.12    1.11    0.22    0.24    0.16    0.17    0.08    0.08    0.05    0.05    2.40    2.52    2.23    1.87    1.36    1.36    1.17    1.16
 2020 147    18     0     0    35.4    33.4     2.0     0.0   13.38   13.80    0.00    0.00    0.00   13.38    0.00    0.00    0.00    2.33     2.4     2.1    1.78    1.32    1.32    1.14    1.13    0.22    0.23    0.17    0.17    0.08    0.08    0.05    0.05    2.54    2.62    2.30    1.95    1.40    1.40    1.19    1.18
 2020 148    19     0     0    36.3    34.3     2.0     0.0   14.27   14.69    0.00    0.00    0.00   14.27    0.00    0.00    0.00    2.47     2.5     2.2    1.86    1.36    1.35    1.16    1.15    0.22    0.23    0.17    0.17    0.08    0.08    0.05    0.05    2.69    2.71    2.38    2.03    1.43    1.43    1.22    1.20
 2020 149    20     0     0    37.2    35.1     2.0     0.0   15.15   15.56    0.00    0.00    0.00   15.15    0.00    0.00    0.00    2.62     2.6     2.3    1.94    1.39    1.39    1.18    1.17    0.22    0.23    0.17    0.17    0.08    0.08    0.05    0.05    2.84    2.81    2.46    2.11    1.47    1.46    1.24    1.22
 2020 150    21     0     0    38.0    36.0     2.1     0.0   15.99   16.39    0.00    0.00    0.00   15.99    0.00    0.00    0.00    2.76     2.7     2.4    2.01    1.42    1.42    1.20    1.19    0.22    0.23    0.17    0.17    0.08    0.08    0.05    0.05    2.99    2.89    2.53    2.18    1.50    1.50    1.26    1.24
 2020 151    22     0     0    38.9    36.8     2.1     0.0   16.86   17.26    0.00    0.00    0.00   16.86    0.00    0.00    0.00    0.62     1.7     2.4    3.08    2.48    1.50    1.22    1.21    0.22    0.23    0.17    0.17    0.08    0.08    0.05    0.05    0.84    1.89    2.53    3.26    2.56    1.58    1.28    1.26
 2020 152    23     0     0    39.9    37.4     2.4     0.0   17.86   17.88    0.00    0.00    0.00   17.86    0.00    0.00    0.00    1.01     1.7     2.3    2.95    2.44    1.87    1.24    1.22    0.31    0.31    0.24    0.24    0.09    0.08    0.05    0.05    1.32    1.98    2.57    3.19    2.52    1.95    1.29    1.27
 2020 153    24     0     0    40.9    38.7     2.2     0.0   18.93   19.16    0.00    0.00    0.00   18.93    0.00    0.00    0.00    1.81     1.9     2.5    2.95    2.43    1.88    1.25    1.23    0.23    0.23    0.18    0.28    0.08    0.07    0.05    0.05    2.04    2.11    2.66    3.23    2.51    1.96    1.30    1.29
 2020 154    25     0     0    42.1    40.2     1.9     0.0   20.11   20.65    0.00    0.00    0.00   20.11    0.00    0.00    0.00    2.48     2.1     2.6    3.12    2.43    1.90    1.27    1.25    0.19    0.19    0.15    0.18    0.07    0.07    0.05    0.05    2.67    2.29    2.79    3.30    2.50    1.97    1.32    1.30
 2020 155    26     0     0    43.4    41.6     1.7     0.0   21.35   22.06    0.00    0.00    0.00   21.35    0.00    0.00    0.00    2.69     2.3     2.8    3.26    2.48    1.95    1.30    1.27    0.17    0.17    0.14    0.15    0.07    0.07    0.05    0.05    2.86    2.43    2.90    3.41    2.55    2.02    1.35    1.32
 2020 156    27     0     0    44.6    43.0     1.7     0.0   22.64   23.41    0.00    0.00    0.00   22.64    0.00    0.00    0.00    2.90     2.4     2.9    3.39    2.54    2.00    1.33    1.30    0.17    0.17    0.13    0.14    0.06    0.06    0.04    0.05    3.07    2.58    3.01    3.52    2.60    2.07    1.37    1.35
 2020 157    28     0     0    45.9    44.3     1.7     0.0   23.93   24.72    0.00    0.00    0.00   23.93    0.00    0.00    0.00    3.11     2.6     3.0    3.50    2.59    2.05    1.36    1.33    0.17    0.17    0.13    0.13    0.06    0.06    0.04    0.05    3.28    2.73    3.13    3.64    2.65    2.12    1.40    1.37
 2020 158    29     0     0    47.3    45.6     1.6     0.0   25.25   26.05    0.00    0.00    0.00   25.25    0.00    0.00    0.00    3.33     2.7     3.1    3.62    2.64    2.11    1.39    1.35    0.17    0.17    0.13    0.13    0.06    0.06    0.04    0.05    3.50    2.89    3.25    3.75    2.70    2.17    1.43    1.40
 2020 159    30     0     0    48.6    47.0     1.6     0.0   26.59   27.40    0.00    0.00    0.00   26.59    0.00    0.00    0.00    3.54     2.9     3.2    3.74    2.69    2.16    1.42    1.38    0.17    0.17    0.12    0.13    0.06    0.06    0.04    0.05    3.71    3.04    3.37    3.87    2.75    2.22    1.46    1.43
 2020 160    31     0     0    49.9    48.3     1.6     0.0   27.92   28.73    0.00    0.00    0.00   27.92    0.00    0.00    0.00    3.77     3.0     3.4    3.86    2.74    2.21    1.45    1.41    0.17    0.17    0.13    0.13    0.06    0.06    0.04    0.05    3.94    3.19    3.49    3.99    2.80    2.27    1.49    1.45
 2020 161    32     0     0    51.3    49.6     1.6     0.0   29.26   30.09    0.00    0.00    0.00   29.26    0.00    0.00    0.00    3.55     3.4     3.5    3.98    2.80    2.26    1.48    1.44    0.17    0.17    0.13    0.13    0.06    0.06    0.04    0.05    3.72    3.57    3.62    4.11    2.86    2.32    1.53    1.48
 2020 162    33     0     0    52.5    50.8     1.7     0.0   30.52   31.30    0.00    0.00    0.00   30.52    0.00    0.00    0.00    3.77     3.5     3.6    4.09    2.84    2.31    1.51    1.46    0.17    0.17    0.13    0.13    0.06    0.06    0.04    0.05    3.94    3.70    3.73    4.22    2.90    2.37    1.55    1.51
 2020 163    34     0     0    53.6    51.8     1.7     0.0   31.70   32.41    0.00    0.00    0.00   31.70    0.11    0.00    0.00    3.92     3.6     3.7    4.18    2.88    2.35    1.54    1.48    0.18    0.18    0.14    0.14    0.07    0.07    0.04    0.05    4.09    3.78    3.82    4.32    2.95    2.41    1.58    1.53
 2020 164    35     0     0    54.4    52.6     1.8     0.0   32.85   33.51    0.00    0.00    0.00   32.85    0.41    0.00    0.00    3.98     3.6     3.7    4.28    2.93    2.39    1.56    1.51    0.18    0.19    0.14    0.15    0.07    0.07    0.05    0.05    4.16    3.78    3.88    4.42    2.99    2.46    1.61    1.55
 2020 165    36     0     0    55.0    53.2     1.8     0.0   33.98   34.64    0.00    0.00    0.00   33.98    0.98    0.00    0.00    3.93     3.5     3.8    4.38    2.97    2.43    1.59    1.53    0.17    0.19    0.14    0.15    0.07    0.07    0.05    0.05    4.10    3.69    3.90    4.52    3.04    2.50    1.63    1.58
 2020 166    37     0     0    55.3    53.5     1.8     0.0   35.10   35.76    0.00    0.00    0.00   35.10    1.77    0.00    0.00    3.80     3.3     3.7    4.47    3.01    2.48    1.61    1.55    0.16    0.19    0.15    0.15    0.07    0.07    0.05    0.05    3.95    3.53    3.86    4.62    3.08    2.54    1.66    1.60
 2020 167    38     0     0    55.5    54.1     1.5     0.0   36.05   37.04    0.00    0.01    0.00   36.04    2.49    0.00    0.00    3.72     3.3     3.7    4.57    3.06    2.52    1.64    1.58    0.04    0.02    0.14    0.14    0.07    0.07    0.05    0.05    3.76    3.27    3.84    4.71    3.13    2.59    1.69    1.63
 2020 168    39     0     0    55.4    54.0     1.4     0.0   37.12   38.13    0.00    0.01    0.00   37.11    3.67    0.00    0.00    3.46     2.9     3.6    4.62    3.12    2.58    1.67    1.61    0.04    0.04    0.13    0.13    0.06    0.06    0.04    0.05    3.50    2.91    3.72    4.76    3.18    2.64    1.72    1.65
 2020 169    40     0     0    55.1    53.6     1.5     0.0   38.25   39.22    0.00    0.01    0.00   38.24    5.09    0.00    0.00    3.31     2.5     3.4    4.55    3.17    2.63    1.70    1.63    0.05    0.08    0.13    0.13    0.06    0.06    0.04    0.05    3.36    2.59    3.56    4.68    3.23    2.69    1.75    1.68
 2020 170    41     0     0    55.0    53.5     1.5     0.0   39.44   40.37    0.00    0.01    0.00   39.43    6.36    0.00    0.00    3.31     2.3     3.3    4.40    3.22    2.68    1.73    1.66    0.05    0.12    0.13    0.13    0.06    0.06    0.04    0.05    3.37    2.39    3.44    4.53    3.28    2.74    1.78    1.71
 2020 171    42     0     0    54.1    52.5     1.6     0.0   40.61   41.49    0.00    0.01    0.00   40.61    8.49    0.00    0.00    3.40     1.9     3.0    4.00    3.27    2.73    1.76    1.69    0.05    0.14    0.13    0.13    0.06    0.06    0.04    0.05    3.46    2.04    3.15    4.13    3.33    2.79    1.81    1.73
 2020 172    43     0     0    53.7    52.1     1.6     0.0   41.74   42.53    0.00    0.01    0.00   41.73    9.96    0.00    0.00    3.48     1.7     2.8    3.72    3.31    2.77    1.79    1.71    0.06    0.17    0.14    0.14    0.06    0.07    0.04    0.05    3.53    1.88    2.97    3.86    3.38    2.83    1.83    1.76
 2020 173    44     0     0    51.2    49.5     1.7     0.0   42.84   43.58    0.00    0.01    0.00   42.83   13.63    0.00    0.00    3.54     1.1     2.2    2.90    3.26    2.81    1.81    1.73    0.06    0.19    0.14    0.15    0.07    0.07    0.05    0.05    3.60    1.31    2.37    3.04    3.33    2.88    1.86    1.78
 2020 174    45     0     0    50.2    48.4     1.7     0.0   43.94   44.65    0.00    0.01    0.00   43.93   15.71    0.00    0.00    3.60     0.9     2.0    2.51    3.10    2.85    1.84    1.76    0.06    0.20    0.14    0.15    0.07    0.07    0.05    0.05    3.66    1.14    2.10    2.65    3.17    2.92    1.89    1.80
 2020 175    46     0     0    48.3    46.6     1.8     0.0   45.01   45.68    0.00    0.01    0.00   45.00   18.61    0.00    0.00    3.65     0.7     1.5    1.95    2.74    2.89    1.86    1.78    0.06    0.22    0.15    0.15    0.07    0.07    0.05    0.05    3.71    0.89    1.69    2.10    2.80    2.96    1.91    1.83
 2020 176    47     0     0    46.9    45.1     1.8     0.0   46.07   46.72    0.00    0.01    0.00   46.06   21.14    0.00    0.00    3.69     0.5     1.2    1.51    2.32    2.93    1.89    1.80    0.06    0.22    0.15    0.15    0.07    0.07    0.05    0.05    3.75    0.73    1.36    1.66    2.39    3.01    1.94    1.85
 2020 177    48     0     0    45.5    43.8     1.8     0.0   47.22   47.91    0.00    0.01    0.00   47.21   23.66    0.00    0.00    3.74     0.4     0.9    1.08    1.87    2.98    1.92    1.83    0.06    0.22    0.14    0.15    0.07    0.07    0.05    0.05    3.80    0.65    1.04    1.23    1.93    3.05    1.96    1.87
 2020 178    49     0     0    44.1    42.4     1.7     0.0   48.41   49.14    0.00    0.01    0.00   48.40   26.23    0.00    0.00    3.78     0.4     0.7    0.81    1.51    2.49    1.95    1.85    0.06    0.21    0.14    0.14    0.07    0.07    0.04    0.05    3.84    0.65    0.83    0.95    1.57    2.55    1.99    1.90
 2020 179    50     0     0    43.1    41.4     1.7     0.0   49.63   50.40    0.00    0.01    0.00   49.63   28.44    0.00    0.00    3.83     0.4     0.6    0.64    1.23    1.99    1.98    1.88    0.06    0.21    0.13    0.14    0.06    0.06    0.04    0.05    3.89    0.65    0.70    0.78    1.29    2.06    2.02    1.93
 2020 180    51     0     0    42.6    40.9     1.6     0.0   50.90   51.70    0.00    0.01    0.00   50.89   30.27    0.00    0.00    3.87     0.5     0.5    0.53    1.02    1.61    2.01    1.91    0.06    0.21    0.13    0.13    0.06    0.06    0.04    0.05    3.93    0.66    0.62    0.67    1.08    1.67    2.05    1.95
 2020 181    52     0     0    42.3    40.7     1.6     0.0   52.22   53.05    0.00    0.01    0.00   52.21   31.85    0.00    0.00    3.92     0.5     0.4    0.47    0.85    1.31    2.04    1.93    0.06    0.21    0.13    0.13    0.06    0.06    0.04    0.05    3.98    0.66    0.57    0.60    0.91    1.38    2.08    1.98
 2020 182    53     0     0    42.2    40.6     1.6     0.0   53.56   54.41    0.00    0.01    0.00   53.55   33.26    0.00    0.00    3.96     0.5     0.4    0.43    0.72    1.08    2.07    1.96    0.06    0.21    0.13    0.13    0.06    0.06    0.04    0.05    4.03    0.67    0.54    0.56    0.78    1.14    2.11    2.01
 2020 183    54     0     0    42.2    40.6     1.6     0.0   54.89   55.76    0.00    0.01    0.00   54.89   34.60    0.00    0.00    4.01     0.5     0.4    0.40    0.62    0.90    2.09    1.99    0.06    0.21    0.13    0.13    0.06    0.06    0.04    0.04    4.07    0.67    0.52    0.53    0.68    0.96    2.13    2.03
 2020 184    55     0     0    42.1    40.6     1.6     0.0   56.21   57.07    0.00    0.01    0.00   56.20   35.99    0.00    0.00    4.05     0.5     0.4    0.38    0.54    0.76    2.09    2.02    0.07    0.21    0.13    0.13    0.06    0.06    0.04    0.04    4.12    0.66    0.51    0.51    0.60    0.82    2.13    2.06
 2020 185    56     0     0    42.0    40.5     1.6     0.0   57.53   58.39    0.00    0.01    0.00   57.52   37.41    0.00    0.00    4.10     0.5     0.4    0.37    0.47    0.65    2.07    2.04    0.07    0.21    0.13    0.13    0.06    0.06    0.04    0.05    4.17    0.66    0.50    0.50    0.53    0.71    2.11    2.09
 2020 186    57     0     0    41.9    40.3     1.6     0.0   58.82   59.68    0.00    0.01    0.00   58.82   38.85    0.00    0.00    4.14     0.5     0.4    0.37    0.42    0.56    2.05    2.07    0.08    0.20    0.12    0.13    0.06    0.06    0.04    0.05    4.21    0.66    0.50    0.50    0.48    0.62    2.09    2.12
 2020 187    58     0     0    41.7    40.1     1.6     0.0   60.08   60.91    0.00    0.01    0.00   60.07   40.33    0.00    0.00    4.18     0.4     0.4    0.36    0.38    0.48    2.01    2.10    0.08    0.20    0.13    0.13    0.06    0.06    0.04    0.05    4.26    0.65    0.49    0.49    0.44    0.54    2.05    2.14
 2020 188    59     0     0    41.4    39.7     1.7     0.0   61.27   62.06    0.00    0.01    0.00   61.26   41.79    0.00    0.00    4.22     0.4     0.4    0.36    0.34    0.42    1.96    2.12    0.09    0.21    0.13    0.14    0.06    0.06    0.04    0.05    4.30    0.63    0.49    0.49    0.41    0.49    2.01    2.17
 2020 189    60     0     0    41.2    39.5     1.7     0.0   62.46   63.23    0.00    0.01    0.00   62.45   43.19    0.00    0.00    4.25     0.4     0.4    0.36    0.32    0.38    1.92    2.15    0.09    0.21    0.14    0.14    0.06    0.06    0.04    0.05    4.35    0.63    0.50    0.50    0.38    0.44    1.96    2.19
 2020 190    61     0     0    40.9    39.3     1.7     0.0   63.63   64.38    0.00    0.01    0.00   63.62   44.59    0.00    0.00    4.29     0.4     0.4    0.36    0.30    0.34    1.87    2.17    0.10    0.21    0.14    0.14    0.06    0.06    0.04    0.05    4.39    0.63    0.50    0.50    0.36    0.41    1.91    2.22
 2020 191    62     0     0    40.8    39.1     1.7     0.0   64.82   65.59    0.00    0.01    0.00   64.81   45.96    0.00    0.00    4.33     0.4     0.4    0.36    0.30    0.32    1.82    2.20    0.10    0.20    0.13    0.14    0.06    0.06    0.04    0.05    4.43    0.63    0.50    0.50    0.36    0.38    1.86    2.25
 2020 192    63     0     0    40.6    38.9     1.7     0.0   66.01   66.78    0.00    0.01    0.00   66.00   47.35    0.00    0.00    4.37     0.4     0.4    0.36    0.30    0.30    1.77    2.23    0.10    0.20    0.13    0.14    0.06    0.06    0.04    0.05    4.48    0.62    0.50    0.50    0.36    0.36    1.81    2.27
 2020 193    64     0     0    40.4    38.8     1.7     0.0   67.21   68.00    0.00    0.01    0.00   67.20   48.69    0.00    0.00    4.42     0.4     0.4    0.36    0.30    0.30    1.72    2.25    0.11    0.19    0.13    0.14    0.06    0.06    0.04    0.05    4.52    0.62    0.50    0.50    0.36    0.36    1.77    2.30
 2020 194    65     0     0    40.3    38.7     1.6     0.0   68.42   69.23    0.00    0.01    0.00   68.41   50.03    0.00    0.00    4.46     0.4     0.4    0.37    0.30    0.30    1.68    2.28    0.11    0.19    0.13    0.13    0.06    0.06    0.04    0.05    4.57    0.62    0.50    0.50    0.36    0.36    1.72    2.32
 2020 195    66     0     0    40.2    38.5     1.6     0.0   69.63   70.45    0.00    0.01    0.00   69.62   51.37    0.00    0.00    4.50     0.4     0.4    0.36    0.30    0.30    1.64    2.30    0.11    0.19    0.13    0.13    0.06    0.06    0.04    0.05    4.61    0.61    0.50    0.50    0.36    0.36    1.68    2.35
 2020 196    67     0     0    40.0    38.4     1.7     0.0   70.80   71.59    0.00    0.01    0.00   70.79   52.67    0.00    0.00    4.54     0.4     0.4    0.36    0.30    0.30    1.59    2.33    0.11    0.19    0.13    0.14    0.06    0.06    0.04    0.05    4.66    0.60    0.49    0.49    0.36    0.36    1.64    2.38
 2020 197    68     0     0    39.9    38.3     1.6     0.0   71.95   72.74    0.00    0.01    0.00   71.94   53.91    0.00    0.00    4.61     0.4     0.4    0.36    0.30    0.30    1.55    2.36    0.09    0.19    0.14    0.14    0.06    0.06    0.04    0.05    4.70    0.60    0.49    0.50    0.36    0.36    1.59    2.40
 2020 198    69     0     0    39.8    38.2     1.7     0.0   73.08   73.86    0.00    0.01    0.00   73.07   55.14    0.00    0.00    4.66     0.4     0.4    0.35    0.30    0.29    1.51    2.38    0.08    0.19    0.14    0.14    0.06    0.06    0.04    0.05    4.74    0.59    0.49    0.50    0.36    0.36    1.55    2.43
 2020 199    70     0     0    39.7    38.0     1.7     0.0   74.18   74.94    0.00    0.01    0.00   74.17   56.33    0.00    0.00    4.70     0.4     0.4    0.35    0.29    0.29    1.47    2.40    0.08    0.19    0.14    0.14    0.06    0.07    0.04    0.05    4.78    0.59    0.49    0.49    0.36    0.36    1.52    2.45
 2020 200    71     0     0    39.7    38.0     1.7     0.0   75.29   76.06    0.00    0.01    0.00   75.28   57.49    0.00    0.00    4.77     0.4     0.4    0.35    0.30    0.29    1.44    2.43    0.07    0.19    0.14    0.14    0.06    0.07    0.04    0.05    4.84    0.59    0.50    0.50    0.36    0.36    1.48    2.48
 2020 201    72     0     0    37.9    36.2     1.7     0.0   76.45   77.21    0.00    0.01    0.00   76.44   60.45    0.00    0.00    1.96     0.4     0.4    0.36    0.30    0.30    1.40    2.46    0.11    0.19    0.14    0.14    0.06    0.06    0.04    0.05    2.07    0.59    0.50    0.50    0.36    0.36    1.44    2.50
 2020 202    73     0     0    37.1    35.4     1.7     0.0   77.61   78.35    0.00    0.01    0.00   77.60   62.35    0.00    0.00    0.87     0.4     0.4    0.35    0.30    0.30    1.37    2.48    0.14    0.18    0.14    0.14    0.06    0.06    0.04    0.05    1.02    0.58    0.50    0.50    0.36    0.36    1.41    2.53
 2020 203    74     0     0    36.9    35.2     1.7     0.0   78.80   79.54    0.00    0.01    0.00   78.79   63.81    0.00    0.00    0.47     0.4     0.4    0.36    0.30    0.30    1.34    2.51    0.16    0.18    0.14    0.14    0.06    0.06    0.04    0.05    0.63    0.58    0.50    0.50    0.36    0.36    1.38    2.55
 2020 204    75     0     0    36.7    35.0     1.7     0.0   79.96   80.70    0.00    0.01    0.00   79.96   65.10    0.00    0.00    0.38     0.4     0.4    0.36    0.30    0.30    1.30    2.53    0.16    0.18    0.14    0.14    0.06    0.06    0.04    0.05    0.54    0.57    0.50    0.50    0.36    0.36    1.35    2.58
 2020 205    76     0     0    36.7    35.0     1.7     0.0   81.11   81.85    0.00    0.01    0.00   81.11   66.29    0.00    0.00    0.38     0.4     0.4    0.35    0.30    0.29    1.27    2.56    0.15    0.18    0.14    0.14    0.07    0.07    0.04    0.05    0.53    0.57    0.50    0.50    0.36    0.36    1.32    2.60
 2020 206    77     0     0    36.6    34.9     1.7     0.0   82.24   82.98    0.00    0.01    0.00   82.23   67.46    0.00    0.00    0.37     0.4     0.4    0.35    0.29    0.29    1.25    2.58    0.14    0.18    0.14    0.14    0.07    0.07    0.04    0.05    0.51    0.56    0.50    0.50    0.36    0.36    1.29    2.63
 2020 207    78     0     0    36.7    35.0     1.7     0.0   83.40   84.17    0.00    0.01    0.00   83.39   68.61    0.00    0.00    0.37     0.4     0.4    0.36    0.30    0.30    1.22    2.61    0.13    0.17    0.14    0.14    0.06    0.06    0.04    0.05    0.50    0.57    0.50    0.50    0.36    0.36    1.26    2.65
 2020 208    79     0     0    36.7    35.0     1.6     0.0   84.58   85.39    0.00    0.01    0.00   84.57   69.78    0.00    0.00    0.19     0.4     0.4    0.39    0.32    0.31    1.19    2.63    0.11    0.17    0.14    0.14    0.06    0.06    0.04    0.05    0.30    0.53    0.55    0.53    0.38    0.38    1.24    2.68
 2020 209    80     0     0    36.9    34.7     2.2     0.0   85.91   86.14    0.00    0.01    0.00   85.90   70.89    0.00    0.00    0.21     0.3     0.3    0.31    0.29    0.35    1.17    2.66    0.26    0.32    0.22    0.22    0.08    0.06    0.04    0.05    0.47    0.61    0.55    0.53    0.37    0.41    1.21    2.70
 2020 210    81     0     0    37.3    34.7     2.7     0.0   87.20   86.99    0.00    0.01    0.00   87.19   71.71    0.00    0.00    0.27     0.3     0.3    0.29    0.28    0.30    1.16    2.68    0.37    0.42    0.29    0.29    0.09    0.08    0.04    0.05    0.64    0.76    0.58    0.58    0.37    0.38    1.20    2.73
 2020 211    82     0     0    37.8    34.9     2.9     0.0   88.44   87.96    0.00    0.01    0.00   88.43   72.49    0.00    0.00    0.32     0.4     0.3    0.32    0.29    0.29    1.13    2.71    0.43    0.48    0.32    0.32    0.10    0.09    0.04    0.05    0.75    0.86    0.65    0.64    0.39    0.38    1.18    2.75
 2020 212    83     0     0    38.1    34.9     3.2     0.0   89.65   88.90    0.00    0.01    0.00   89.64   73.44    0.00    0.00    0.34     0.4     0.3    0.32    0.29    0.30    1.11    2.73    0.51    0.54    0.36    0.36    0.10    0.09    0.04    0.05    0.86    0.90    0.67    0.68    0.39    0.39    1.15    2.77
 2020 213    84     0     0    38.2    34.9     3.3     0.0   90.79   89.86    0.00    0.01    0.00   90.78   74.40    0.00    0.00    0.38     0.4     0.3    0.31    0.28    0.29    1.09    2.75    0.55    0.56    0.38    0.38    0.10    0.10    0.05    0.05    0.93    0.93    0.70    0.70    0.39    0.39    1.13    2.80
 2020 214    85     0     0    38.3    34.9     3.4     0.0   91.88   90.82    0.00    0.01    0.00   91.87   75.39    0.00    0.00    0.39     0.4     0.3    0.32    0.29    0.31    1.07    2.77    0.55    0.55    0.40    0.40    0.11    0.10    0.05    0.05    0.94    0.93    0.72    0.72    0.39    0.41    1.11    2.81
 2020 215    86     0     0    38.4    35.0     3.4     0.0   93.01   91.86    0.00    0.01    0.00   93.01   76.45    0.00    0.00    0.40     0.4     0.3    0.33    0.29    0.31    1.05    2.78    0.55    0.55    0.41    0.41    0.10    0.10    0.05    0.05    0.96    0.93    0.74    0.74    0.40    0.42    1.09    2.83
 2020 216    87     0     0    38.5    35.3     3.2     0.0   94.16   93.20    0.00    0.01    0.00   94.16   77.55    0.00    0.00    0.35     0.6     0.3    0.34    0.31    0.31    1.03    2.80    0.55    0.35    0.41    0.42    0.08    0.10    0.05    0.05    0.90    0.94    0.76    0.76    0.40    0.42    1.08    2.85
 2020 217    88     0     0    38.2    34.8     3.4     0.0   95.25   94.07    0.01    0.01    0.00   95.25   78.85    0.00    0.00    0.32     0.3     0.3    0.33    0.28    0.30    1.01    2.82    0.60    0.44    0.43    0.43    0.09    0.10    0.05    0.05    0.92    0.77    0.76    0.76    0.38    0.40    1.06    2.87
 2020 218    89     0     0    38.4    34.9     3.5     0.0   96.36   95.00    0.01    0.01    0.00   96.35   79.76    0.00    0.00    0.35     0.3     0.3    0.32    0.28    0.30    1.00    2.84    0.61    0.50    0.45    0.44    0.10    0.11    0.05    0.05    0.97    0.84    0.77    0.77    0.38    0.40    1.04    2.89
 2020 219    90     0     0    38.6    35.1     3.6     0.0   97.48   96.04    0.01    0.01    0.00   97.47   80.67    0.00    0.00    0.32     0.4     0.4    0.35    0.29    0.31    0.98    2.87    0.58    0.53    0.45    0.45    0.10    0.11    0.05    0.05    0.90    0.90    0.80    0.79    0.39    0.41    1.03    2.91
 2020 220    91     0     0    38.7    34.9     3.7     0.0   98.56   96.91    0.02    0.01    0.00   98.55   81.70    0.00    0.00    0.34     0.3     0.3    0.32    0.28    0.29    0.97    2.89    0.61    0.58    0.48    0.47    0.11    0.11    0.05    0.05    0.95    0.90    0.79    0.78    0.38    0.40    1.02    2.94
 2020 221    92     0     0    38.9    35.2     3.7     0.0   99.69   97.98    0.02    0.01    0.00   99.68   82.59    0.00    0.00    0.40     0.4     0.3    0.34    0.29    0.30    0.95    2.91    0.58    0.56    0.48    0.47    0.11    0.11    0.05    0.05    0.98    0.93    0.82    0.81    0.40    0.41    1.00    2.96
 2020 222    93     0     0    39.1    35.4     3.6     0.0  100.90   99.20    0.02    0.01    0.00  100.89   83.66    0.00    0.00    0.43     0.4     0.4    0.36    0.30    0.32    0.94    2.92    0.56    0.54    0.47    0.46    0.10    0.11    0.05    0.05    0.99    0.94    0.83    0.82    0.40    0.43    0.99    2.97
 2020 223    94     0     0    39.1    36.5     2.6     0.0  102.17  101.45    0.02    0.01    0.00  102.16   84.87    0.00    0.00    0.68     0.4     0.6    0.58    0.32    0.36    0.94    2.94    0.32    0.53    0.23    0.23    0.08    0.08    0.04    0.05    1.00    0.94    0.82    0.81    0.40    0.44    0.98    2.99
 2020 224    95     0     0    38.7    36.7     2.0     0.0  103.47  103.33    0.02    0.01    0.00  103.47   86.57    0.00    0.00    0.56     0.7     0.6    0.55    0.31    0.36    0.93    2.96    0.26    0.28    0.16    0.16    0.07    0.07    0.04    0.05    0.82    0.95    0.72    0.71    0.38    0.43    0.97    3.00
 2020 225    96     0     0    38.2    36.4     1.8     0.0  104.81  104.82    0.02    0.01    0.00  104.80   88.42    0.00    0.00    0.48     0.5     0.5    0.48    0.30    0.34    0.92    2.99    0.24    0.23    0.14    0.15    0.07    0.07    0.04    0.05    0.72    0.73    0.63    0.63    0.37    0.40    0.96    3.03
 2020 226    97     0     0    38.0    36.2     1.8     0.0  106.13  106.17    0.02    0.01    0.00  106.12   89.94    0.00    0.00    0.46     0.4     0.4    0.42    0.30    0.31    0.91    3.01    0.23    0.22    0.14    0.14    0.07    0.07    0.04    0.05    0.69    0.66    0.57    0.57    0.37    0.38    0.95    3.06
 2020 227    98     0     0    37.9    36.1     1.8     0.0  107.42  107.47    0.02    0.01    0.00  107.41   91.29    0.00    0.00    0.45     0.4     0.4    0.38    0.30    0.30    0.90    3.04    0.21    0.22    0.14    0.14    0.07    0.07    0.04    0.05    0.66    0.65    0.53    0.53    0.37    0.37    0.94    3.09
 2020 228    99     0     0    38.0    36.2     1.8     0.0  108.68  108.72    0.02    0.01    0.00  108.67   92.52    0.00    0.00    0.42     0.4     0.4    0.36    0.30    0.30    0.89    3.07    0.19    0.22    0.14    0.15    0.07    0.07    0.04    0.05    0.62    0.65    0.50    0.50    0.37    0.37    0.93    3.11
 2020 229   100     0     0    38.1    36.3     1.8     0.0  109.91  109.95    0.02    0.01    0.00  109.90   93.64    0.00    0.00    0.40     0.4     0.4    0.35    0.30    0.30    0.88    3.09    0.18    0.23    0.15    0.15    0.07    0.07    0.04    0.05    0.58    0.64    0.50    0.50    0.37    0.37    0.92    3.14
 2020 230   101     0     0    38.2    36.4     1.8     0.0  111.15  111.17    0.02    0.01    0.00  111.15   94.73    0.00    0.00    0.39     0.4     0.4    0.36    0.30    0.30    0.87    3.12    0.19    0.23    0.15    0.15    0.07    0.07    0.04    0.05    0.58    0.64    0.50    0.50    0.37    0.37    0.91    3.16
 2020 231   102     0     0    38.4    36.6     1.8     0.0  112.40  112.43    0.02    0.01    0.00  112.39   95.81    0.00    0.00    0.41     0.4     0.4    0.36    0.30    0.30    0.86    3.14    0.18    0.22    0.15    0.15    0.07    0.07    0.04    0.05    0.59    0.65    0.51    0.51    0.37    0.37    0.90    3.19
 2020 232   103     0     0    38.5    36.7     1.8     0.0  113.64  113.69    0.02    0.01    0.00  113.63   96.91    0.00    0.00    0.40     0.4     0.4    0.36    0.30    0.30    0.85    3.17    0.16    0.22    0.15    0.15    0.07    0.07    0.04    0.05    0.56    0.64    0.50    0.51    0.37    0.37    0.90    3.22
 2020 233   104     0     0    38.6    36.9     1.8     0.0  114.86  114.92    0.02    0.01    0.00  114.85   98.00    0.00    0.00    0.38     0.4     0.4    0.36    0.30    0.30    0.84    3.20    0.14    0.22    0.15    0.15    0.07    0.07    0.04    0.05    0.52    0.64    0.50    0.50    0.37    0.37    0.89    3.24
 2020 234   105     0     0    38.8    37.1     1.8     0.0  116.08  116.14    0.02    0.01    0.00  116.07   99.04    0.00    0.00    0.42     0.4     0.4    0.36    0.30    0.30    0.84    3.22    0.13    0.22    0.15    0.15    0.07    0.07    0.04    0.05    0.55    0.64    0.51    0.51    0.37    0.37    0.88    3.27
 2020 235   106     0     0    39.0    37.3     1.8     0.0  117.29  117.36    0.02    0.01    0.00  117.28  100.03    0.00    0.00    0.52     0.4     0.4    0.36    0.30    0.30    0.83    3.25    0.11    0.22    0.15    0.15    0.07    0.07    0.04    0.05    0.63    0.64    0.51    0.51    0.37    0.37    0.87    3.30
 2020 236   107     0     0    39.3    37.5     1.8     0.0  118.50  118.58    0.02    0.01    0.00  118.49  101.02    0.00    0.00    0.61     0.4     0.4    0.36    0.30    0.30    0.82    3.28    0.10    0.22    0.15    0.15    0.07    0.07    0.04    0.05    0.71    0.63    0.51    0.51    0.37    0.37    0.87    3.32
 2020 237   108     0     0    39.5    37.7     1.7     0.0  119.71  119.81    0.02    0.01    0.00  119.70  102.01    0.00    0.00    0.69     0.4     0.4    0.36    0.30    0.30    0.82    3.30    0.09    0.22    0.15    0.15    0.07    0.07    0.04    0.05    0.78    0.63    0.51    0.51    0.37    0.37    0.86    3.35
 2020 238   109     0     0    39.7    38.0     1.7     0.0  120.95  121.08    0.02    0.01    0.00  120.94  103.00    0.00    0.00    0.77     0.4     0.4    0.36    0.30    0.30    0.81    3.33    0.08    0.21    0.14    0.15    0.07    0.07    0.04    0.05    0.84    0.64    0.51    0.51    0.37    0.37    0.85    3.38
 2020 239   110     0     0    39.9    38.3     1.7     0.0  122.20  122.35    0.02    0.01    0.00  122.19  104.03    0.00    0.00    0.83     0.4     0.4    0.37    0.30    0.30    0.81    3.36    0.07    0.21    0.14    0.14    0.07    0.07    0.04    0.04    0.90    0.63    0.51    0.51    0.37    0.37    0.85    3.40
 2020 240   111     0     0    40.2    38.5     1.7     0.0  123.47  123.65    0.02    0.01    0.00  123.46  105.06    0.00    0.00    0.89     0.4     0.4    0.37    0.30    0.30    0.80    3.39    0.07    0.20    0.14    0.14    0.07    0.07    0.04    0.04    0.95    0.63    0.51    0.51    0.37    0.37    0.85    3.43
 2020 241   112     0     0    40.4    38.8     1.6     0.0  124.75  124.95    0.02    0.01    0.00  124.75  106.10    0.00    0.00    0.25     0.6     0.4    0.40    0.32    0.32    0.80    3.42    0.06    0.20    0.14    0.14    0.07    0.07    0.04    0.04    0.31    0.79    0.59    0.54    0.39    0.38    0.84    3.46
 2020 242   113     0     0    40.6    38.3     2.3     0.0  126.14  125.72    0.02    0.01    0.00  126.14  107.32    0.00    0.00    0.27     0.3     0.3    0.31    0.28    0.32    0.81    3.43    0.25    0.33    0.23    0.23    0.09    0.09    0.04    0.04    0.52    0.67    0.58    0.54    0.37    0.41    0.85    3.47
 2020 243   114     0     0    41.1    38.4     2.7     0.0  127.46  126.58    0.02    0.01    0.00  127.45  108.15    0.00    0.00    0.31     0.3     0.3    0.29    0.28    0.29    0.80    3.46    0.38    0.41    0.29    0.30    0.10    0.10    0.04    0.04    0.69    0.73    0.59    0.58    0.38    0.39    0.84    3.51
 2020 244   115     0     0    41.8    38.9     2.8     0.0  128.78  127.77    0.02    0.01    0.00  128.77  108.77    0.00    0.00    0.58     0.4     0.3    0.32    0.29    0.31    0.79    3.49    0.28    0.45    0.33    0.34    0.11    0.10    0.04    0.04    0.85    0.83    0.65    0.65    0.40    0.41    0.84    3.54
 2020 245   116     0     0    42.0    39.0     3.0     0.0  130.02  128.89    0.02    0.01    0.00  130.02  109.78    0.00    0.00    0.47     0.4     0.3    0.33    0.30    0.32    0.79    3.51    0.27    0.48    0.36    0.36    0.11    0.11    0.05    0.05    0.74    0.86    0.69    0.69    0.40    0.43    0.84    3.55
 2020 246   117     0     0    42.2    39.7     2.4     0.0  131.19  130.60    0.02    0.01    0.00  131.18  110.78    0.00    0.00    0.43     0.5     0.5    0.47    0.29    0.31    0.79    3.52    0.27    0.33    0.24    0.24    0.11    0.11    0.05    0.05    0.70    0.87    0.71    0.71    0.40    0.42    0.84    3.57
 2020 247   118     0     0    41.9    39.6     2.2     0.0  132.31  131.95    0.02    0.01    0.00  132.30  112.22    0.00    0.00    0.43     0.4     0.4    0.44    0.31    0.34    0.79    3.53    0.28    0.28    0.20    0.20    0.09    0.09    0.05    0.05    0.71    0.72    0.63    0.63    0.40    0.43    0.84    3.58
 2020 248   119     0     0    41.7    39.6     2.1     0.0  133.45  133.19    0.02    0.01    0.00  133.44  113.53    0.00    0.00    0.42     0.4     0.4    0.40    0.30    0.32    0.78    3.56    0.27    0.26    0.18    0.18    0.08    0.08    0.05    0.05    0.69    0.67    0.57    0.58    0.39    0.40    0.83    3.60
 2020 249   120     0     0    41.6    39.5     2.1     0.0  134.57  134.35    0.02    0.01    0.00  134.56  114.74    0.00    0.00    0.41     0.4     0.4    0.36    0.30    0.30    0.77    3.58    0.27    0.25    0.17    0.17    0.08    0.08    0.05    0.05    0.68    0.64    0.53    0.53    0.38    0.38    0.82    3.63
 2020 250   121     0     0    41.7    39.7     2.0     0.0  135.74  135.60    0.02    0.01    0.00  135.73  115.77    0.00    0.00    0.42     0.4     0.4    0.36    0.30    0.30    0.77    3.61    0.24    0.24    0.16    0.16    0.08    0.08    0.05    0.05    0.66    0.64    0.52    0.52    0.38    0.38    0.82    3.65
 2020 251   122     0     0    41.9    40.0     1.9     0.0  136.99  136.95    0.02    0.01    0.00  136.98  116.83    0.00    0.00    0.43     0.4     0.4    0.37    0.30    0.30    0.77    3.63    0.20    0.22    0.16    0.16    0.08    0.08    0.05    0.05    0.63    0.65    0.52    0.52    0.38    0.38    0.81    3.68
 2020 252   123     0     0    42.0    40.2     1.8     0.0  138.25  138.27    0.02    0.01    0.00  138.25  117.96    0.00    0.00    0.39     0.4     0.4    0.36    0.30    0.30    0.76    3.66    0.17    0.22    0.15    0.15    0.07    0.07    0.05    0.05    0.57    0.64    0.52    0.52    0.38    0.38    0.81    3.71
 2020 253   124     0     0    42.1    40.2     1.9     0.0  139.45  139.38    0.02    0.01    0.00  139.44  119.06    0.00    0.00    0.25     0.4     0.4    0.36    0.31    0.31    0.76    3.69    0.23    0.22    0.16    0.16    0.08    0.08    0.05    0.05    0.48    0.59    0.52    0.52    0.38    0.38    0.81    3.73
 2020 254   125     0     0    42.2    39.9     2.4     0.0  140.43  139.90    0.02    0.01    0.00  140.43  119.95    0.00    0.00    0.27     0.3     0.3    0.28    0.27    0.28    0.75    3.71    0.33    0.31    0.22    0.22    0.10    0.09    0.05    0.05    0.60    0.58    0.50    0.50    0.36    0.37    0.80    3.76
 2020 255   126     0     0    42.6    39.9     2.7     0.0  141.24  140.38    0.02    0.01    0.00  141.23  120.41    0.00    0.00    0.29     0.3     0.3    0.26    0.26    0.27    0.72    3.75    0.39    0.36    0.26    0.27    0.11    0.11    0.05    0.05    0.69    0.64    0.53    0.53    0.37    0.37    0.77    3.80
 2020 256   127     0     0    42.9    40.0     2.9     0.0  141.93  140.87    0.02    0.01    0.00  141.92  120.81    0.00    0.00    0.32     0.3     0.3    0.27    0.27    0.29    0.70    3.76    0.43    0.40    0.29    0.30    0.11    0.11    0.05    0.05    0.75    0.68    0.57    0.57    0.38    0.40    0.76    3.81
 2020 257   128     0     0    43.0    40.1     2.9     0.0  142.58  141.52    0.02    0.01    0.00  142.57  121.29    0.00    0.00    0.33     0.3     0.3    0.28    0.27    0.30    0.70    3.76    0.46    0.37    0.27    0.32    0.12    0.12    0.05    0.05    0.79    0.71    0.59    0.60    0.39    0.41    0.75    3.81
 2020 258   129     0     0    43.1    40.4     2.7     0.0  143.34  142.46    0.02    0.01    0.00  143.33  121.97    0.00    0.00    0.42     0.4     0.3    0.35    0.28    0.31    0.70    3.77    0.42    0.34    0.24    0.28    0.12    0.11    0.05    0.05    0.83    0.70    0.57    0.63    0.40    0.42    0.75    3.82
 2020 259   130     0     0    43.1    40.6     2.5     0.0  144.27  143.60    0.02    0.01    0.00  144.26  122.87    0.00    0.00    0.45     0.4     0.3    0.37    0.30    0.32    0.70    3.78    0.37    0.31    0.22    0.24    0.11    0.10    0.05    0.05    0.82    0.69    0.57    0.61    0.41    0.42    0.75    3.83
 2020 260   131     0     0    43.1    40.8     2.3     0.0  145.33  144.87    0.02    0.01    0.00  145.33  123.92    0.00    0.00    0.44     0.4     0.4    0.37    0.30    0.30    0.70    3.80    0.32    0.28    0.20    0.21    0.10    0.09    0.05    0.05    0.77    0.68    0.56    0.58    0.40    0.39    0.75    3.85
 2020 261   132     0     0    43.2    41.0     2.2     0.0  146.44  146.12    0.02    0.01    0.00  146.43  125.01    0.00    0.00    0.43     0.4     0.4    0.36    0.30    0.30    0.70    3.83    0.29    0.26    0.18    0.19    0.09    0.09    0.05    0.05    0.72    0.66    0.54    0.55    0.39    0.39    0.75    3.88
 2020 262   133     0     0    43.2    41.1     2.1     0.0  147.52  147.26    0.02    0.01    0.00  147.51  126.05    0.00    0.00    0.41     0.4     0.3    0.35    0.30    0.30    0.69    3.85    0.26    0.25    0.18    0.18    0.09    0.09    0.05    0.05    0.67    0.64    0.52    0.53    0.38    0.38    0.74    3.90
 2020 263   134     0     0    43.3    41.2     2.1     0.0  148.58  148.35    0.02    0.01    0.00  148.58  127.01    0.00    0.00    0.39     0.4     0.3    0.34    0.29    0.29    0.69    3.88    0.24    0.25    0.18    0.18    0.08    0.08    0.05    0.05    0.63    0.63    0.52    0.52    0.38    0.38    0.74    3.92
 2020 264   135     0     0    43.4    41.4     2.0     0.0  149.64  149.43    0.02    0.01    0.00  149.64  127.93    0.00    0.00    0.38     0.4     0.3    0.34    0.29    0.29    0.68    3.90    0.21    0.25    0.17    0.17    0.08    0.08    0.05    0.05    0.59    0.62    0.52    0.52    0.38    0.38    0.73    3.95
 2020 265   136     0     0    43.6    41.6     2.0     0.0  150.71  150.53    0.02    0.01    0.00  150.71  128.83    0.00    0.00    0.37     0.4     0.3    0.34    0.30    0.30    0.68    3.92    0.19    0.24    0.17    0.17    0.08    0.08    0.05    0.05    0.55    0.63    0.52    0.52    0.38    0.38    0.73    3.97
 2020 266   137     0     0    43.8    41.8     2.0     0.0  151.79  151.64    0.02    0.01    0.00  151.79  129.74    0.00    0.00    0.36     0.4     0.3    0.35    0.30    0.30    0.68    3.95    0.16    0.24    0.17    0.17    0.08    0.08    0.05    0.05    0.53    0.62    0.52    0.52    0.38    0.38    0.73    4.00
 2020 267   138     0     0    44.0    42.0     2.0     0.0  152.89  152.76    0.02    0.01    0.00  152.88  130.61    0.00    0.00    0.42     0.4     0.3    0.35    0.30    0.30    0.68    3.97    0.14    0.24    0.17    0.17    0.08    0.08    0.05    0.05    0.56    0.62    0.52    0.52    0.38    0.38    0.73    4.02
 2020 268   139     0     0    44.2    42.3     1.9     0.0  153.99  153.89    0.02    0.01    0.00  153.98  131.47    0.00    0.00    0.51     0.4     0.3    0.35    0.30    0.30    0.68    4.00    0.13    0.23    0.17    0.17    0.08    0.08    0.05    0.05    0.63    0.62    0.52    0.52    0.38    0.38    0.72    4.05
 2020 269   140     0     0    44.5    42.6     1.9     0.0  155.13  155.07    0.02    0.01    0.00  155.12  132.33    0.00    0.00    0.59     0.4     0.4    0.36    0.30    0.30    0.68    4.03    0.11    0.23    0.17    0.17    0.08    0.08    0.05    0.05    0.70    0.63    0.52    0.52    0.38    0.38    0.72    4.07
 2020 270   141     0     0    44.8    42.9     1.8     0.0  156.31  156.30    0.02    0.01    0.00  156.30  133.24    0.00    0.00    0.67     0.4     0.4    0.36    0.30    0.30    0.68    4.05    0.09    0.22    0.16    0.16    0.08    0.08    0.05    0.05    0.76    0.63    0.52    0.52    0.38    0.38    0.72    4.10
 2020 271   142     0     0    45.0    43.2     1.8     0.0  157.52  157.56    0.02    0.01    0.00  157.51  134.18    0.00    0.00    0.73     0.4     0.4    0.36    0.31    0.31    0.68    4.08    0.08    0.22    0.16    0.16    0.08    0.08    0.05    0.05    0.81    0.62    0.52    0.52    0.38    0.38    0.72    4.13
 2020 272   143     0     0    46.2    44.4     1.8     0.0  158.69  158.71    0.02    0.01    0.00  158.68  134.18    0.00    0.00    0.79     0.6     0.5    0.47    0.36    0.36    0.71    4.11    0.08    0.22    0.16    0.16    0.08    0.08    0.05    0.05    0.87    0.77    0.63    0.63    0.44    0.44    0.75    4.15
 2020 273   144     0     0    47.3    45.4     1.9     0.0  159.78  159.77    0.02    0.01    0.00  159.77  134.18    0.00    0.00    0.84     0.7     0.6    0.56    0.40    0.40    0.73    4.13    0.07    0.22    0.16    0.16    0.08    0.08    0.05    0.05    0.91    0.90    0.73    0.73    0.48    0.48    0.78    4.18
 2020 274   145     0     0    48.3    46.5     1.9     0.0  160.83  160.77    0.02    0.01    0.00  160.82  134.18    0.00    0.00    0.88     0.8     0.7    0.65    0.45    0.45    0.76    4.16    0.07    0.23    0.17    0.17    0.08    0.08    0.05    0.05    0.95    1.03    0.82    0.82    0.53    0.53    0.81    4.20
 2020 275   146     0     0    49.3    47.4     1.9     0.0  161.80  161.69    0.02    0.01    0.00  161.79  134.18    0.00    0.00    0.92     0.9     0.7    0.74    0.49    0.49    0.78    4.18    0.07    0.24    0.17    0.17    0.09    0.09    0.05    0.05    0.99    1.14    0.91    0.91    0.57    0.57    0.83    4.23
 2020 276   147     0     0    50.2    48.2     2.0     0.0  162.67  162.51    0.02    0.01    0.00  162.66  134.18    0.00    0.00    0.95     1.0     0.8    0.81    0.52    0.53    0.81    4.20    0.08    0.24    0.18    0.18    0.09    0.09    0.05    0.05    1.03    1.23    0.98    0.99    0.61    0.61    0.86    4.25
 2020 277   148     0     0    51.1    49.0     2.0     0.0  163.55  163.36    0.02    0.01    0.00  163.54  134.18    0.00    0.00    0.99     1.1     0.9    0.88    0.56    0.56    0.83    4.22    0.08    0.25    0.18    0.18    0.09    0.09    0.05    0.05    1.07    1.33    1.06    1.07    0.65    0.65    0.88    4.27
